# Electronic Supplementary Material (ESI) for Chemical Science.
# This journal is Â© The Royal Society of Chemistry 2023

####################################################################### 
# 
# This file contains crystal structure data downloaded from the 
# Cambridge Structural Database (CSD) hosted by the Cambridge 
# Crystallographic Data Centre (CCDC).
# 
# Full information about CCDC data access policies and citation 
# guidelines are available at http://www.ccdc.cam.ac.uk/access/V1 
# 
# Audit and citation data items may have been added by the CCDC. 
# Please retain this information to preserve the provenance of 
# this file and to allow appropriate attribution of the data. 
# 
#######################################################################

data_1
_database_code_depnum_ccdc_archive 'CCDC 2210911'
loop_
_audit_author_name
_audit_author_address
'Xue Zhang'
;Dalian University of Technology
China
;
_audit_update_record             
;
2022-10-04 deposited with the CCDC.	2023-04-14 downloaded from the CCDC.
;
_audit_creation_date             2021-10-19
_audit_creation_method           
;
Olex2 1.3
(compiled 2020.11.12 svn.r5f609507 for OlexSys, GUI svn.r6408)
;
_shelx_SHELXL_version_number     2018/3
_chemical_name_common            ?
_chemical_name_systematic        ?
_chemical_formula_moiety         'C28 H19 B N2 O2'
_chemical_formula_sum            'C28 H19 B N2 O2'
_chemical_formula_weight         426.26
_chemical_melting_point          ?
loop_
_atom_type_symbol
_atom_type_description
_atom_type_scat_dispersion_real
_atom_type_scat_dispersion_imag
_atom_type_scat_source
C C 0.0033 0.0016 'International Tables Vol C Tables 4.2.6.8 and 6.1.1.4'
H H 0.0000 0.0000 'International Tables Vol C Tables 4.2.6.8 and 6.1.1.4'
B B 0.0013 0.0007 'International Tables Vol C Tables 4.2.6.8 and 6.1.1.4'
N N 0.0061 0.0033 'International Tables Vol C Tables 4.2.6.8 and 6.1.1.4'
O O 0.0106 0.0060 'International Tables Vol C Tables 4.2.6.8 and 6.1.1.4'

_shelx_space_group_comment       
;
The symmetry employed for this shelxl refinement is uniquely defined
by the following loop, which should always be used as a source of
symmetry information in preference to the above space-group names.
They are only intended as comments.
;
_space_group_crystal_system      triclinic
_space_group_IT_number           2
_space_group_name_H-M_alt        'P -1'
_space_group_name_Hall           '-P 1'
loop_
_space_group_symop_operation_xyz
'x, y, z'
'-x, -y, -z'

_cell_length_a                   7.9377(10)
_cell_length_b                   9.5122(12)
_cell_length_c                   14.8507(19)
_cell_angle_alpha                97.129(3)
_cell_angle_beta                 98.579(3)
_cell_angle_gamma                105.788(3)
_cell_volume                     1050.8(2)
_cell_formula_units_Z            2
_cell_measurement_reflns_used    4880
_cell_measurement_temperature    200.0
_cell_measurement_theta_max      26.000
_cell_measurement_theta_min      2.446
_shelx_estimated_absorpt_T_max   0.959
_shelx_estimated_absorpt_T_min   0.959
_exptl_absorpt_coefficient_mu    0.085
_exptl_absorpt_correction_T_max  0.7456
_exptl_absorpt_correction_T_min  0.6747
_exptl_absorpt_correction_type   analytical
_exptl_absorpt_process_details   
;
SADABS-2014/3 (Bruker,2014/3) was used for absorption correction.
wR2(int) was 0.1579 before and 0.0620 after correction.
The Ratio of minimum to maximum transmission is 0.9049.
The \l/2 correction factor is 0.00150.
;
_exptl_absorpt_special_details   ?
_exptl_crystal_colour            'metallic bluish blue'
_exptl_crystal_colour_lustre     metallic
_exptl_crystal_colour_modifier   bluish
_exptl_crystal_colour_primary    blue
_exptl_crystal_density_diffrn    1.347
_exptl_crystal_density_meas      ?
_exptl_crystal_density_method    ?
_exptl_crystal_description       block
_exptl_crystal_F_000             444
_exptl_crystal_size_max          0.5
_exptl_crystal_size_mid          0.5
_exptl_crystal_size_min          0.5
_exptl_transmission_factor_max   ?
_exptl_transmission_factor_min   ?
_diffrn_reflns_av_R_equivalents  0.0969
_diffrn_reflns_av_unetI/netI     0.0969
_diffrn_reflns_Laue_measured_fraction_full 1.000
_diffrn_reflns_Laue_measured_fraction_max 0.998
_diffrn_reflns_limit_h_max       10
_diffrn_reflns_limit_h_min       -10
_diffrn_reflns_limit_k_max       12
_diffrn_reflns_limit_k_min       -12
_diffrn_reflns_limit_l_max       19
_diffrn_reflns_limit_l_min       -19
_diffrn_reflns_number            22543
_diffrn_reflns_point_group_measured_fraction_full 1.000
_diffrn_reflns_point_group_measured_fraction_max 0.998
_diffrn_reflns_theta_full        25.242
_diffrn_reflns_theta_max         27.640
_diffrn_reflns_theta_min         2.259
_diffrn_ambient_temperature      200.0
_diffrn_detector_area_resol_mean ?
_diffrn_measured_fraction_theta_full 1.000
_diffrn_measured_fraction_theta_max 0.998
_diffrn_measurement_device_type  'CCD area detector'
_diffrn_measurement_method       'phi and omega scans'
_diffrn_radiation_monochromator  graphite
_diffrn_radiation_type           MoK\a
_diffrn_radiation_wavelength     0.71073
_diffrn_source                   ?
_diffrn_source_current           50.0
_diffrn_source_power             2.5
_diffrn_source_voltage           50.0
_reflns_Friedel_coverage         0.000
_reflns_Friedel_fraction_full    .
_reflns_Friedel_fraction_max     .
_reflns_number_gt                2730
_reflns_number_total             4893
_reflns_special_details          
;
 Reflections were merged by SHELXL according to the crystal
 class for the calculation of statistics and refinement.
 
 _reflns_Friedel_fraction is defined as the number of unique
 Friedel pairs measured divided by the number that would be
 possible theoretically, ignoring centric projections and
 systematic absences.
;
_reflns_threshold_expression     'I > 2\s(I)'
_computing_cell_refinement       'SAINT v8.34A (Bruker, 2013)'
_computing_data_collection       ?
_computing_data_reduction        'SAINT v8.34A (Bruker, 2013)'
_computing_molecular_graphics    'Olex2 1.3 (Dolomanov et al., 2009)'
_computing_publication_material  'Olex2 1.3 (Dolomanov et al., 2009)'
_computing_structure_refinement  'SHELXL 2018/3 (Sheldrick, 2015)'
_computing_structure_solution    'SHELXT 2018/2 (Sheldrick, 2018)'
_refine_diff_density_max         0.278
_refine_diff_density_min         -0.299
_refine_diff_density_rms         0.056
_refine_ls_extinction_coef       .
_refine_ls_extinction_method     none
_refine_ls_goodness_of_fit_ref   1.025
_refine_ls_hydrogen_treatment    constr
_refine_ls_matrix_type           full
_refine_ls_number_parameters     299
_refine_ls_number_reflns         4893
_refine_ls_number_restraints     0
_refine_ls_R_factor_all          0.1459
_refine_ls_R_factor_gt           0.0659
_refine_ls_restrained_S_all      1.025
_refine_ls_shift/su_max          0.000
_refine_ls_shift/su_mean         0.000
_refine_ls_structure_factor_coef Fsqd
_refine_ls_weighting_details     
'w=1/[\s^2^(Fo^2^)+(0.0447P)^2^+0.4030P] where P=(Fo^2^+2Fc^2^)/3'
_refine_ls_weighting_scheme      calc
_refine_ls_wR_factor_gt          0.1116
_refine_ls_wR_factor_ref         0.1362
_refine_special_details          ?
_olex2_refinement_description    
;
1. Fixed Uiso
 At 1.2 times of:
  All C(H) groups
 At 1.5 times of:
  All C(H,H,H) groups
2.a Aromatic/amide H refined with riding coordinates:
 C3(H3), C4(H4), C6(H6), C7(H7), C10(H10), C11(H11), C14(H14), C15(H15),
 C19(H19), C20(H20), C21(H21), C22(H22), C24(H24), C25(H25), C26(H26), C27(H27)
2.b Idealised Me refined as rotating group:
 C1(H1A,H1B,H1C)
;
_atom_sites_solution_hydrogens   geom
_atom_sites_solution_primary     dual
_atom_sites_solution_secondary   ?
loop_
_atom_site_label
_atom_site_type_symbol
_atom_site_fract_x
_atom_site_fract_y
_atom_site_fract_z
_atom_site_U_iso_or_equiv
_atom_site_adp_type
_atom_site_occupancy
_atom_site_site_symmetry_order
_atom_site_calc_flag
_atom_site_refinement_flags_posn
_atom_site_refinement_flags_adp
_atom_site_refinement_flags_occupancy
_atom_site_disorder_assembly
_atom_site_disorder_group
B1 B 0.3742(3) 0.2922(3) 0.30042(18) 0.0229(6) Uani 1 1 d . . . . .
C1 C 1.3169(3) 0.8333(3) 0.1246(2) 0.0495(8) Uani 1 1 d . . . . .
H1A H 1.329347 0.939184 0.140554 0.074 Uiso 1 1 calc R U . . .
H1B H 1.313552 0.807913 0.058187 0.074 Uiso 1 1 calc R U . . .
H1C H 1.418585 0.811086 0.159514 0.074 Uiso 1 1 calc R U . . .
C2 C 1.1462(3) 0.7434(3) 0.14837(17) 0.0332(6) Uani 1 1 d . . . . .
C3 C 1.0774(3) 0.5924(3) 0.11569(17) 0.0336(6) Uani 1 1 d . . . . .
H3 H 1.137799 0.545464 0.076520 0.040 Uiso 1 1 calc R U . . .
C4 C 0.9235(3) 0.5082(3) 0.13850(16) 0.0290(6) Uani 1 1 d . . . . .
H4 H 0.877694 0.405343 0.113552 0.035 Uiso 1 1 calc R U . . .
C5 C 0.8347(3) 0.5735(2) 0.19813(16) 0.0254(5) Uani 1 1 d . . . . .
C6 C 0.9029(3) 0.7257(3) 0.23031(18) 0.0347(6) Uani 1 1 d . . . . .
H6 H 0.843908 0.772902 0.270223 0.042 Uiso 1 1 calc R U . . .
C7 C 1.0548(3) 0.8093(3) 0.20518(18) 0.0384(7) Uani 1 1 d . . . . .
H7 H 1.097239 0.913195 0.227071 0.046 Uiso 1 1 calc R U . . .
C8 C 0.6818(3) 0.4813(2) 0.23031(16) 0.0245(5) Uani 1 1 d . . . . .
C9 C 0.5348(3) 0.3797(2) 0.16779(16) 0.0233(5) Uani 1 1 d . . . . .
C10 C 0.4798(3) 0.3629(2) 0.07135(16) 0.0270(6) Uani 1 1 d . . . . .
H10 H 0.551822 0.402787 0.029547 0.032 Uiso 1 1 calc R U . . .
C11 C 0.3025(3) 0.2783(2) 0.04811(16) 0.0277(6) Uani 1 1 d . . . . .
H11 H 0.230993 0.249129 -0.012225 0.033 Uiso 1 1 calc R U . . .
C12 C 0.2480(3) 0.2435(2) 0.13077(16) 0.0232(5) Uani 1 1 d . . . . .
C13 C 0.6837(3) 0.4921(2) 0.32543(17) 0.0248(5) Uani 1 1 d . . . . .
C14 C 0.8236(3) 0.5571(3) 0.40332(17) 0.0313(6) Uani 1 1 d . . . . .
H14 H 0.933497 0.628971 0.403548 0.038 Uiso 1 1 calc R U . . .
C15 C 0.7723(3) 0.4982(3) 0.47794(17) 0.0325(6) Uani 1 1 d . . . . .
H15 H 0.839578 0.522706 0.539231 0.039 Uiso 1 1 calc R U . . .
C16 C 0.6015(3) 0.3945(3) 0.44754(16) 0.0250(5) Uani 1 1 d . . . . .
C17 C 0.4966(3) 0.2758(3) 0.48574(16) 0.0263(6) Uani 1 1 d . . . . .
C18 C 0.3766(3) 0.1530(3) 0.42338(17) 0.0273(6) Uani 1 1 d . . . . .
C19 C 0.2798(3) 0.0321(3) 0.45634(18) 0.0376(7) Uani 1 1 d . . . . .
H19 H 0.198578 -0.050520 0.414502 0.045 Uiso 1 1 calc R U . . .
C20 C 0.3024(4) 0.0326(3) 0.5508(2) 0.0483(8) Uani 1 1 d . . . . .
H20 H 0.234403 -0.049415 0.573358 0.058 Uiso 1 1 calc R U . . .
C21 C 0.4224(4) 0.1507(3) 0.6127(2) 0.0457(7) Uani 1 1 d . . . . .
H21 H 0.437908 0.148951 0.677212 0.055 Uiso 1 1 calc R U . . .
C22 C 0.5193(3) 0.2709(3) 0.58031(17) 0.0357(6) Uani 1 1 d . . . . .
H22 H 0.602672 0.351453 0.622809 0.043 Uiso 1 1 calc R U . . .
C23 C 0.0644(3) 0.2462(2) 0.24958(16) 0.0226(5) Uani 1 1 d . . . . .
C24 C -0.1006(3) 0.2135(2) 0.27655(17) 0.0279(6) Uani 1 1 d . . . . .
H24 H -0.108720 0.250334 0.337700 0.033 Uiso 1 1 calc R U . . .
C25 C -0.2521(3) 0.1280(3) 0.21506(18) 0.0315(6) Uani 1 1 d . . . . .
H25 H -0.363648 0.104592 0.234518 0.038 Uiso 1 1 calc R U . . .
C26 C -0.2431(3) 0.0755(3) 0.12483(18) 0.0332(6) Uani 1 1 d . . . . .
H26 H -0.348113 0.016618 0.082748 0.040 Uiso 1 1 calc R U . . .
C27 C -0.0809(3) 0.1096(2) 0.09671(17) 0.0295(6) Uani 1 1 d . . . . .
H27 H -0.075679 0.075427 0.034588 0.035 Uiso 1 1 calc R U . . .
C28 C 0.0759(3) 0.1933(2) 0.15791(16) 0.0230(5) Uani 1 1 d . . . . .
N1 N 0.3916(2) 0.29632(19) 0.20064(12) 0.0215(4) Uani 1 1 d . . . . .
N2 N 0.5459(2) 0.39944(19) 0.35776(13) 0.0229(4) Uani 1 1 d . . . . .
O1 O 0.21122(19) 0.33251(16) 0.31211(10) 0.0249(4) Uani 1 1 d . . . . .
O2 O 0.3576(2) 0.14768(16) 0.32948(10) 0.0259(4) Uani 1 1 d . . . . .

loop_
_atom_site_aniso_label
_atom_site_aniso_U_11
_atom_site_aniso_U_22
_atom_site_aniso_U_33
_atom_site_aniso_U_23
_atom_site_aniso_U_13
_atom_site_aniso_U_12
B1 0.0216(14) 0.0239(14) 0.0217(15) 0.0036(11) 0.0005(12) 0.0064(12)
C1 0.0324(16) 0.0568(19) 0.0451(19) 0.0139(15) 0.0015(14) -0.0092(14)
C2 0.0248(14) 0.0376(15) 0.0294(15) 0.0086(12) -0.0002(12) -0.0022(12)
C3 0.0265(14) 0.0385(15) 0.0336(16) 0.0065(12) 0.0068(12) 0.0055(12)
C4 0.0270(14) 0.0236(12) 0.0330(15) 0.0032(11) 0.0035(11) 0.0041(11)
C5 0.0206(13) 0.0248(12) 0.0272(14) 0.0039(11) 0.0006(10) 0.0028(10)
C6 0.0370(16) 0.0269(13) 0.0369(16) 0.0026(12) 0.0081(13) 0.0047(12)
C7 0.0389(16) 0.0249(13) 0.0405(17) 0.0042(12) 0.0034(13) -0.0053(12)
C8 0.0208(13) 0.0218(12) 0.0316(15) 0.0057(11) 0.0038(11) 0.0075(10)
C9 0.0235(13) 0.0224(12) 0.0267(14) 0.0077(10) 0.0067(11) 0.0085(10)
C10 0.0283(14) 0.0279(13) 0.0275(14) 0.0097(11) 0.0066(11) 0.0101(11)
C11 0.0275(14) 0.0311(13) 0.0210(14) 0.0021(11) -0.0012(11) 0.0073(11)
C12 0.0246(13) 0.0193(11) 0.0246(14) 0.0026(10) 0.0024(11) 0.0062(10)
C13 0.0217(13) 0.0206(12) 0.0304(15) 0.0037(11) 0.0011(11) 0.0060(10)
C14 0.0225(13) 0.0315(14) 0.0347(16) -0.0002(12) -0.0008(12) 0.0052(11)
C15 0.0299(15) 0.0379(15) 0.0263(15) -0.0035(12) -0.0054(12) 0.0145(12)
C16 0.0249(13) 0.0297(13) 0.0209(13) -0.0007(10) -0.0023(10) 0.0147(11)
C17 0.0292(14) 0.0314(13) 0.0242(14) 0.0078(11) 0.0040(11) 0.0180(11)
C18 0.0313(14) 0.0312(13) 0.0257(14) 0.0113(11) 0.0066(11) 0.0161(12)
C19 0.0451(17) 0.0343(15) 0.0355(17) 0.0135(13) 0.0093(13) 0.0109(13)
C20 0.067(2) 0.0455(17) 0.0427(19) 0.0261(15) 0.0212(16) 0.0200(16)
C21 0.066(2) 0.0540(18) 0.0288(16) 0.0160(15) 0.0122(15) 0.0315(17)
C22 0.0478(17) 0.0419(16) 0.0260(15) 0.0072(12) 0.0039(13) 0.0282(14)
C23 0.0206(13) 0.0184(11) 0.0266(14) 0.0041(10) -0.0006(11) 0.0052(10)
C24 0.0284(14) 0.0288(13) 0.0269(14) 0.0064(11) 0.0060(11) 0.0081(11)
C25 0.0229(14) 0.0315(14) 0.0404(16) 0.0095(12) 0.0068(12) 0.0064(11)
C26 0.0217(14) 0.0332(14) 0.0359(16) 0.0013(12) -0.0035(12) 0.0004(11)
C27 0.0290(14) 0.0280(13) 0.0295(15) 0.0021(11) 0.0018(12) 0.0087(11)
C28 0.0228(13) 0.0208(11) 0.0234(14) 0.0037(10) 0.0000(10) 0.0057(10)
N1 0.0206(10) 0.0214(10) 0.0210(11) 0.0037(8) 0.0016(8) 0.0050(8)
N2 0.0216(11) 0.0244(10) 0.0214(11) 0.0028(8) 0.0002(9) 0.0073(9)
O1 0.0225(9) 0.0268(9) 0.0230(9) 0.0018(7) -0.0001(7) 0.0067(7)
O2 0.0302(9) 0.0244(8) 0.0227(9) 0.0072(7) 0.0020(7) 0.0077(7)

_geom_special_details            
;
 All esds (except the esd in the dihedral angle between two l.s. planes)
 are estimated using the full covariance matrix.  The cell esds are taken
 into account individually in the estimation of esds in distances, angles
 and torsion angles; correlations between esds in cell parameters are only
 used when they are defined by crystal symmetry.  An approximate (isotropic)
 treatment of cell esds is used for estimating esds involving l.s. planes.
;
loop_
_geom_bond_atom_site_label_1
_geom_bond_atom_site_label_2
_geom_bond_distance
_geom_bond_site_symmetry_2
_geom_bond_publ_flag
B1 N1 1.513(3) . ?
B1 N2 1.518(3) . ?
B1 O1 1.474(3) . ?
B1 O2 1.469(3) . ?
C1 H1A 0.9800 . ?
C1 H1B 0.9800 . ?
C1 H1C 0.9800 . ?
C1 C2 1.510(3) . ?
C2 C3 1.385(3) . ?
C2 C7 1.389(4) . ?
C3 H3 0.9500 . ?
C3 C4 1.381(3) . ?
C4 H4 0.9500 . ?
C4 C5 1.398(3) . ?
C5 C6 1.394(3) . ?
C5 C8 1.472(3) . ?
C6 H6 0.9500 . ?
C6 C7 1.383(3) . ?
C7 H7 0.9500 . ?
C8 C9 1.414(3) . ?
C8 C13 1.401(3) . ?
C9 C10 1.409(3) . ?
C9 N1 1.389(3) . ?
C10 H10 0.9500 . ?
C10 C11 1.385(3) . ?
C11 H11 0.9500 . ?
C11 C12 1.409(3) . ?
C12 C28 1.454(3) . ?
C12 N1 1.355(3) . ?
C13 C14 1.421(3) . ?
C13 N2 1.393(3) . ?
C14 H14 0.9500 . ?
C14 C15 1.368(3) . ?
C15 H15 0.9500 . ?
C15 C16 1.412(3) . ?
C16 C17 1.441(3) . ?
C16 N2 1.351(3) . ?
C17 C18 1.412(3) . ?
C17 C22 1.397(3) . ?
C18 C19 1.387(3) . ?
C18 O2 1.373(3) . ?
C19 H19 0.9500 . ?
C19 C20 1.386(4) . ?
C20 H20 0.9500 . ?
C20 C21 1.384(4) . ?
C21 H21 0.9500 . ?
C21 C22 1.378(4) . ?
C22 H22 0.9500 . ?
C23 C24 1.392(3) . ?
C23 C28 1.416(3) . ?
C23 O1 1.365(3) . ?
C24 H24 0.9500 . ?
C24 C25 1.377(3) . ?
C25 H25 0.9500 . ?
C25 C26 1.390(3) . ?
C26 H26 0.9500 . ?
C26 C27 1.380(3) . ?
C27 H27 0.9500 . ?
C27 C28 1.397(3) . ?

loop_
_geom_angle_atom_site_label_1
_geom_angle_atom_site_label_2
_geom_angle_atom_site_label_3
_geom_angle
_geom_angle_site_symmetry_1
_geom_angle_site_symmetry_3
_geom_angle_publ_flag
N1 B1 N2 105.64(19) . . ?
O1 B1 N1 106.73(18) . . ?
O1 B1 N2 114.86(19) . . ?
O2 B1 N1 115.34(19) . . ?
O2 B1 N2 106.91(18) . . ?
O2 B1 O1 107.63(19) . . ?
H1A C1 H1B 109.5 . . ?
H1A C1 H1C 109.5 . . ?
H1B C1 H1C 109.5 . . ?
C2 C1 H1A 109.5 . . ?
C2 C1 H1B 109.5 . . ?
C2 C1 H1C 109.5 . . ?
C3 C2 C1 121.2(2) . . ?
C3 C2 C7 117.9(2) . . ?
C7 C2 C1 120.9(2) . . ?
C2 C3 H3 119.1 . . ?
C4 C3 C2 121.8(2) . . ?
C4 C3 H3 119.1 . . ?
C3 C4 H4 119.8 . . ?
C3 C4 C5 120.3(2) . . ?
C5 C4 H4 119.8 . . ?
C4 C5 C8 120.4(2) . . ?
C6 C5 C4 117.9(2) . . ?
C6 C5 C8 121.7(2) . . ?
C5 C6 H6 119.4 . . ?
C7 C6 C5 121.2(2) . . ?
C7 C6 H6 119.4 . . ?
C2 C7 H7 119.5 . . ?
C6 C7 C2 120.9(2) . . ?
C6 C7 H7 119.5 . . ?
C9 C8 C5 121.7(2) . . ?
C13 C8 C5 119.2(2) . . ?
C13 C8 C9 119.1(2) . . ?
C10 C9 C8 131.8(2) . . ?
N1 C9 C8 120.1(2) . . ?
N1 C9 C10 106.7(2) . . ?
C9 C10 H10 125.9 . . ?
C11 C10 C9 108.1(2) . . ?
C11 C10 H10 125.9 . . ?
C10 C11 H11 126.5 . . ?
C10 C11 C12 107.1(2) . . ?
C12 C11 H11 126.5 . . ?
C11 C12 C28 134.3(2) . . ?
N1 C12 C11 108.36(19) . . ?
N1 C12 C28 116.1(2) . . ?
C8 C13 C14 131.6(2) . . ?
N2 C13 C8 120.3(2) . . ?
N2 C13 C14 106.3(2) . . ?
C13 C14 H14 126.0 . . ?
C15 C14 C13 108.1(2) . . ?
C15 C14 H14 126.0 . . ?
C14 C15 H15 126.1 . . ?
C14 C15 C16 107.8(2) . . ?
C16 C15 H15 126.1 . . ?
C15 C16 C17 133.9(2) . . ?
N2 C16 C15 108.1(2) . . ?
N2 C16 C17 117.0(2) . . ?
C18 C17 C16 117.8(2) . . ?
C22 C17 C16 123.2(2) . . ?
C22 C17 C18 118.8(2) . . ?
C19 C18 C17 120.1(2) . . ?
O2 C18 C17 121.3(2) . . ?
O2 C18 C19 118.6(2) . . ?
C18 C19 H19 120.2 . . ?
C20 C19 C18 119.5(3) . . ?
C20 C19 H19 120.2 . . ?
C19 C20 H20 119.5 . . ?
C21 C20 C19 121.1(3) . . ?
C21 C20 H20 119.5 . . ?
C20 C21 H21 120.2 . . ?
C22 C21 C20 119.6(3) . . ?
C22 C21 H21 120.2 . . ?
C17 C22 H22 119.6 . . ?
C21 C22 C17 120.8(3) . . ?
C21 C22 H22 119.6 . . ?
C24 C23 C28 119.8(2) . . ?
O1 C23 C24 118.7(2) . . ?
O1 C23 C28 121.5(2) . . ?
C23 C24 H24 119.8 . . ?
C25 C24 C23 120.4(2) . . ?
C25 C24 H24 119.8 . . ?
C24 C25 H25 119.7 . . ?
C24 C25 C26 120.6(2) . . ?
C26 C25 H25 119.7 . . ?
C25 C26 H26 120.2 . . ?
C27 C26 C25 119.6(2) . . ?
C27 C26 H26 120.2 . . ?
C26 C27 H27 119.4 . . ?
C26 C27 C28 121.2(2) . . ?
C28 C27 H27 119.4 . . ?
C23 C28 C12 117.4(2) . . ?
C27 C28 C12 123.9(2) . . ?
C27 C28 C23 118.4(2) . . ?
C9 N1 B1 127.48(19) . . ?
C12 N1 B1 121.59(19) . . ?
C12 N1 C9 109.29(19) . . ?
C13 N2 B1 127.1(2) . . ?
C16 N2 B1 122.19(19) . . ?
C16 N2 C13 109.39(19) . . ?
C23 O1 B1 112.74(17) . . ?
C18 O2 B1 114.08(17) . . ?

loop_
_geom_torsion_atom_site_label_1
_geom_torsion_atom_site_label_2
_geom_torsion_atom_site_label_3
_geom_torsion_atom_site_label_4
_geom_torsion
_geom_torsion_site_symmetry_1
_geom_torsion_site_symmetry_2
_geom_torsion_site_symmetry_3
_geom_torsion_site_symmetry_4
_geom_torsion_publ_flag
C1 C2 C3 C4 178.6(2) . . . . ?
C1 C2 C7 C6 -177.1(2) . . . . ?
C2 C3 C4 C5 -1.8(4) . . . . ?
C3 C2 C7 C6 1.8(4) . . . . ?
C3 C4 C5 C6 2.4(3) . . . . ?
C3 C4 C5 C8 -173.5(2) . . . . ?
C4 C5 C6 C7 -0.9(4) . . . . ?
C4 C5 C8 C9 -52.7(3) . . . . ?
C4 C5 C8 C13 125.8(2) . . . . ?
C5 C6 C7 C2 -1.2(4) . . . . ?
C5 C8 C9 C10 -14.7(4) . . . . ?
C5 C8 C9 N1 -178.98(19) . . . . ?
C5 C8 C13 C14 -13.9(4) . . . . ?
C5 C8 C13 N2 -176.02(19) . . . . ?
C6 C5 C8 C9 131.6(2) . . . . ?
C6 C5 C8 C13 -49.9(3) . . . . ?
C7 C2 C3 C4 -0.3(4) . . . . ?
C8 C5 C6 C7 174.9(2) . . . . ?
C8 C9 C10 C11 -162.2(2) . . . . ?
C8 C9 N1 B1 -4.0(3) . . . . ?
C8 C9 N1 C12 161.4(2) . . . . ?
C8 C13 C14 C15 -160.9(2) . . . . ?
C8 C13 N2 B1 -6.9(3) . . . . ?
C8 C13 N2 C16 160.3(2) . . . . ?
C9 C8 C13 C14 164.7(2) . . . . ?
C9 C8 C13 N2 2.5(3) . . . . ?
C9 C10 C11 C12 0.3(3) . . . . ?
C10 C9 N1 B1 -171.9(2) . . . . ?
C10 C9 N1 C12 -6.5(2) . . . . ?
C10 C11 C12 C28 161.5(2) . . . . ?
C10 C11 C12 N1 -4.3(2) . . . . ?
C11 C12 C28 C23 -144.9(3) . . . . ?
C11 C12 C28 C27 28.2(4) . . . . ?
C11 C12 N1 B1 173.14(19) . . . . ?
C11 C12 N1 C9 6.7(2) . . . . ?
C13 C8 C9 C10 166.8(2) . . . . ?
C13 C8 C9 N1 2.5(3) . . . . ?
C13 C14 C15 C16 0.8(3) . . . . ?
C14 C13 N2 B1 -173.0(2) . . . . ?
C14 C13 N2 C16 -5.9(2) . . . . ?
C14 C15 C16 C17 163.5(2) . . . . ?
C14 C15 C16 N2 -4.5(3) . . . . ?
C15 C16 C17 C18 -150.1(2) . . . . ?
C15 C16 C17 C22 24.2(4) . . . . ?
C15 C16 N2 B1 174.35(19) . . . . ?
C15 C16 N2 C13 6.4(2) . . . . ?
C16 C17 C18 C19 176.4(2) . . . . ?
C16 C17 C18 O2 -1.2(3) . . . . ?
C16 C17 C22 C21 -176.3(2) . . . . ?
C17 C16 N2 B1 4.1(3) . . . . ?
C17 C16 N2 C13 -163.84(19) . . . . ?
C17 C18 C19 C20 -0.3(4) . . . . ?
C17 C18 O2 B1 -35.3(3) . . . . ?
C18 C17 C22 C21 -2.1(3) . . . . ?
C18 C19 C20 C21 -1.2(4) . . . . ?
C19 C18 O2 B1 147.1(2) . . . . ?
C19 C20 C21 C22 1.0(4) . . . . ?
C20 C21 C22 C17 0.7(4) . . . . ?
C22 C17 C18 C19 1.9(3) . . . . ?
C22 C17 C18 O2 -175.7(2) . . . . ?
C23 C24 C25 C26 -1.3(4) . . . . ?
C24 C23 C28 C12 173.77(19) . . . . ?
C24 C23 C28 C27 0.3(3) . . . . ?
C24 C23 O1 B1 146.9(2) . . . . ?
C24 C25 C26 C27 0.0(4) . . . . ?
C25 C26 C27 C28 1.4(4) . . . . ?
C26 C27 C28 C12 -174.6(2) . . . . ?
C26 C27 C28 C23 -1.5(3) . . . . ?
C28 C12 N1 B1 4.4(3) . . . . ?
C28 C12 N1 C9 -161.97(18) . . . . ?
C28 C23 C24 C25 1.1(3) . . . . ?
C28 C23 O1 B1 -34.9(3) . . . . ?
N1 B1 N2 C13 5.1(3) . . . . ?
N1 B1 N2 C16 -160.53(18) . . . . ?
N1 B1 O1 C23 54.0(2) . . . . ?
N1 B1 O2 C18 168.07(18) . . . . ?
N1 C9 C10 C11 3.7(2) . . . . ?
N1 C12 C28 C23 20.0(3) . . . . ?
N1 C12 C28 C27 -166.9(2) . . . . ?
N2 B1 N1 C9 0.4(3) . . . . ?
N2 B1 N1 C12 -163.38(18) . . . . ?
N2 B1 O1 C23 170.75(18) . . . . ?
N2 B1 O2 C18 51.0(2) . . . . ?
N2 C13 C14 C15 3.0(2) . . . . ?
N2 C16 C17 C18 17.1(3) . . . . ?
N2 C16 C17 C22 -168.7(2) . . . . ?
O1 B1 N1 C9 123.1(2) . . . . ?
O1 B1 N1 C12 -40.7(3) . . . . ?
O1 B1 N2 C13 -112.2(2) . . . . ?
O1 B1 N2 C16 82.1(3) . . . . ?
O1 B1 O2 C18 -72.9(2) . . . . ?
O1 C23 C24 C25 179.3(2) . . . . ?
O1 C23 C28 C12 -4.4(3) . . . . ?
O1 C23 C28 C27 -177.91(19) . . . . ?
O2 B1 N1 C9 -117.4(2) . . . . ?
O2 B1 N1 C12 78.8(3) . . . . ?
O2 B1 N2 C13 128.5(2) . . . . ?
O2 B1 N2 C16 -37.2(3) . . . . ?
O2 B1 O1 C23 -70.3(2) . . . . ?
O2 C18 C19 C20 177.4(2) . . . . ?

loop_
_diffrn_refln_index_h
_diffrn_refln_index_k
_diffrn_refln_index_l
_diffrn_refln_intensity_net
_diffrn_refln_intensity_u
-1 0 0 365.86 12.2
-1 0 0 368.86 10.1
-1 0 0 392.16 11.7
-1 0 0 374.06 10.7
-1 0 0 367.36 10.7
1 0 0 368.76 10.7
1 0 0 373.46 10.7
1 0 0 364.06 11.7
1 0 0 379.36 12.2
1 0 0 372.16 10.1
-2 0 0 58.49 5.2
-2 0 0 58.79 2.5
-2 0 0 57.99 3.4
-2 0 0 58.79 3.3
2 0 0 52.79 5.1
2 0 0 58.99 2.5
2 0 0 55.59 3.2
2 0 0 49.1 3.2
2 0 0 58.69 5.1
-3 0 0 0.8 2
-3 0 0 -2 3.9
-3 0 0 2.9 1.8
-3 0 0 0.7 1.2
3 0 0 0.4 3.7
3 0 0 1.5 1
3 0 0 4.1 1.9
3 0 0 -0.5 3.8
3 0 0 2 1.9
-4 0 0 30.7 3.9
-4 0 0 33.7 3.1
4 0 0 26.1 7
4 0 0 16.1 6.1
4 0 0 31.1 2.9
4 0 0 25.6 4.7
-5 0 0 185.98 7.6
-5 0 0 182.78 9.5
5 0 0 184.58 16.4
5 0 0 166.78 15.1
5 0 0 177.78 7.1
-6 0 0 56.99 5.3
-6 0 0 65.09 7.2
6 0 0 53.39 5.7
6 0 0 72.29 13.4
6 0 0 58.19 12.8
-7 0 0 130.49 10.7
-7 0 0 139.69 8
7 0 0 146.19 25.3
7 0 0 137.59 21.7
-8 0 0 -1.6 6.8
-8 0 0 5.8 4.3
8 0 0 30.9 19.8
8 0 0 10 18.4
-9 0 0 11.4 9.3
9 0 0 15.9 23
9 0 0 -33.6 20.3
10 -1 0 64.59 28.6
9 -1 0 8.9 20.2
9 -1 0 -0.4 18.9
-9 1 0 9.7 8.2
8 -1 0 45.7 15.7
8 -1 0 78.69 19.9
-8 1 0 39.8 8.1
-8 1 0 39.4 5.4
7 -1 0 -2.1 12.1
7 -1 0 -0.5 11
-7 1 0 6.4 3.5
-7 1 0 -4 4.5
6 -1 0 45.5 10.4
6 -1 0 41.6 11.4
-6 1 0 30.7 4
-6 1 0 31.9 5.8
5 -1 0 60.29 10
5 -1 0 47.9 4.3
5 -1 0 73.49 11.3
-5 1 0 52.59 4.4
-5 1 0 53.79 5.2
4 -1 0 0.3 2.5
4 -1 0 2.1 4.7
4 -1 0 -1.8 2.5
4 -1 0 -3.8 5.2
4 -1 0 0.2 1.5
-4 1 0 0.3 2
-4 1 0 0.2 4.1
-4 1 0 -3.7 1.5
3 -1 0 579.54 17.6
3 -1 0 590.34 17.6
3 -1 0 586.74 16.7
3 -1 0 572.04 20.8
3 -1 0 575.44 22
-3 1 0 572.64 21.8
-3 1 0 588.44 17.6
-3 1 0 554.14 19.8
-3 1 0 586.44 16.8
2 -1 0 962.8 26.8
2 -1 0 949.31 28.9
2 -1 0 986.4 30.2
2 -1 0 969.9 26.5
2 -1 0 995.3 26.6
-2 1 0 969.3 26.7
-2 1 0 980.8 28.8
-2 1 0 988.6 26.5
-2 1 0 950.6 30
-2 1 0 969.6 26.5
1 -1 0 800.12 23
1 -1 0 755.82 21.2
1 -1 0 783.52 21.6
-1 1 0 777.12 21.6
-1 1 0 785.42 21.3
-1 1 0 780.92 21.6
-1 1 0 787.82 23
0 -1 0 611.44 16.5
0 -1 0 626.34 16.9
0 -1 0 627.44 17.2
0 -1 0 620.14 16.5
0 -1 0 633.74 16.8
0 -1 0 615.14 17
0 1 0 584.74 16.7
0 1 0 571.34 16.4
-1 -1 0 271.77 8.6
-1 -1 0 271.47 8.7
-1 -1 0 269.37 10
1 1 0 268.87 10.2
1 1 0 271.87 8.7
1 1 0 270.97 9.1
1 1 0 270.47 8.6
-2 -1 0 -0.6 1.5
-2 -1 0 -0.5 1.3
-2 -1 0 -2.3 2.4
2 1 0 0.3 1.5
2 1 0 2.8 2.7
2 1 0 -1.2 2.6
2 1 0 -1.5 1.5
-3 -1 0 615.84 17
-3 -1 0 595.34 22.9
-3 -1 0 626.64 19.4
-3 -1 0 585.24 19.4
3 1 0 626.94 23.3
3 1 0 582.44 19.1
3 1 0 580.44 19
-4 -1 0 3.1 1.7
-4 -1 0 1.9 3.4
-4 -1 0 2.5 2.7
4 1 0 3.7 1.5
4 1 0 1.1 6.6
4 1 0 4.8 4.6
-5 -1 0 4.3 3.7
-5 -1 0 5.4 4.3
-5 -1 0 1.7 2.3
5 1 0 15.5 8.4
5 1 0 6.9 2
5 1 0 7.8 7.6
-6 -1 0 313.67 14.8
-6 -1 0 312.47 11.1
6 1 0 311.77 23.9
6 1 0 301.07 23.6
-7 -1 0 16 6.8
7 1 0 28.1 14.3
7 1 0 -0.8 15.6
-8 -1 0 25.5 8.4
8 1 0 64.39 21.3
8 1 0 20.1 18.8
-9 -1 0 13.5 10.6
9 1 0 5.9 24.8
9 1 0 19.1 22.9
10 -2 0 -4.9 23.1
10 -2 0 5.2 24.1
-10 2 0 18.6 10.3
9 -2 0 -10.6 18.9
9 -2 0 24.8 19.6
-9 2 0 34.8 8.2
-9 2 0 33.1 5.9
8 -2 0 60.39 17.4
8 -2 0 48.9 15.6
-8 2 0 66.89 8.7
-8 2 0 53.99 7.6
7 -2 0 89.49 15.5
7 -2 0 71.09 12.6
-7 2 0 57.99 7.4
-7 2 0 57.29 6.5
6 -2 0 -5.8 8
6 -2 0 13.1 8.1
-6 2 0 1.8 3.2
-6 2 0 -3.8 2.4
5 -2 0 2.5 3.2
5 -2 0 -0.1 3.5
5 -2 0 2.7 6.3
5 -2 0 10.4 6.8
-5 2 0 2.1 1.9
-5 2 0 -2.4 5
-5 2 0 -0.1 2.5
4 -2 0 17.3 2.8
4 -2 0 19 2.7
4 -2 0 16.8 5.7
4 -2 0 25.2 3.3
4 -2 0 31.6 6.1
4 -2 0 17.6 3.2
-4 2 0 18.7 2.5
-4 2 0 20.3 2.6
-4 2 0 22 4.7
-4 2 0 19 3.1
-4 2 0 16.9 2.9
3 -2 0 1075.19 30.1
3 -2 0 1059.19 29.4
3 -2 0 1029.9 29.4
3 -2 0 1047.2 34.2
-3 2 0 1067.09 34.7
-3 2 0 1014.2 29.6
-3 2 0 1118.59 32.6
-3 2 0 1049.4 29.5
-3 2 0 1053.69 29.9
-3 2 0 1034.1 29.3
2 -2 0 4097.89 109.49
2 -2 0 4225.48 110.29
2 -2 0 4332.07 113.19
-2 2 0 4051.59 109.99
-2 2 0 4110.89 110.19
-2 2 0 4248.17 113.09
-2 2 0 4094.69 109.49
1 -2 0 152.28 6
1 -2 0 162.88 7
1 -2 0 148.59 5.3
1 -2 0 152.08 6.1
-1 2 0 149.39 5.9
-1 2 0 147.29 7
-1 2 0 156.08 5.9
-1 2 0 154.48 5.3
0 -2 0 620.34 17.3
0 -2 0 620.44 18.2
0 -2 0 632.24 18.6
0 -2 0 601.04 17.9
0 -2 0 612.24 17.8
0 -2 0 631.84 17.2
0 2 0 600.14 18.6
0 2 0 613.54 17.9
0 2 0 604.44 17.1
0 2 0 641.94 17.2
0 2 0 620.74 17.8
0 2 0 627.94 18.1
0 2 0 592.94 16.9
-1 -2 0 280.27 9.3
-1 -2 0 280.27 9
-1 -2 0 277.07 9.7
-1 -2 0 275.47 10.3
1 2 0 275.87 8
1 2 0 280.67 8.8
1 2 0 275.97 9.6
1 2 0 280.57 10.4
1 2 0 281.67 9.1
1 2 0 272.97 11.4
1 2 0 269.67 9.3
-2 -2 0 15.3 2.9
-2 -2 0 15.5 2.7
-2 -2 0 7.4 3.7
2 2 0 18.6 4.5
2 2 0 10.4 2.3
2 2 0 14.8 3.1
2 2 0 17.6 2.8
-3 -2 0 196.08 9.2
-3 -2 0 204.58 9.1
3 2 0 208.48 13.2
3 2 0 210.28 12.7
-4 -2 0 49.3 6.2
-4 -2 0 57.19 5.5
4 2 0 60.39 10.8
4 2 0 37.9 7.2
-5 -2 0 2.2 4.7
-5 -2 0 6 4
5 2 0 -3.9 8.2
5 2 0 -3.2 8.7
-6 -2 0 53.29 8.4
-6 -2 0 56.79 8.7
6 2 0 50.09 13
6 2 0 33 12.7
-7 -2 0 4.9 6.8
7 2 0 4.3 16
7 2 0 33.8 17.2
-8 -2 0 34 9.6
8 2 0 15.5 22.5
8 2 0 14 20.3
-9 -2 0 -5.8 11.4
9 2 0 46.7 29.1
9 2 0 19.4 25
10 -3 0 2.5 22.3
10 -3 0 42.8 22.7
-10 3 0 23.4 10
9 -3 0 -8.3 16.2
9 -3 0 -1.3 17.2
-9 3 0 4.2 5.5
-9 3 0 3.9 7.2
8 -3 0 99.89 16.4
8 -3 0 127.49 20.9
-8 3 0 94.29 8.4
-8 3 0 84.69 8.9
7 -3 0 134.19 19.5
7 -3 0 132.09 17
-7 3 0 133.89 8.3
-7 3 0 138.79 8.9
6 -3 0 3.1 7.9
6 -3 0 7.8 7.9
-6 3 0 4.8 3
-6 3 0 -0.6 2.6
-6 3 0 0.9 2.7
-6 3 0 1.4 3.4
5 -3 0 227.48 10.2
5 -3 0 206.98 14.1
5 -3 0 250.97 16.2
5 -3 0 213.68 9.3
5 -3 0 227.58 9.5
-5 3 0 226.48 9.3
-5 3 0 201.78 12.8
-5 3 0 196.48 8.9
-5 3 0 219.78 9.3
-5 3 0 229.78 9.2
4 -3 0 28.1 4.2
4 -3 0 27.8 3.3
4 -3 0 28.9 6
-4 3 0 27.1 3.6
-4 3 0 25.9 3.4
-4 3 0 27 4
-4 3 0 23.9 2.9
3 -3 0 912.61 26.8
3 -3 0 1002.8 32
3 -3 0 925.71 28
-3 3 0 925.11 31.7
-3 3 0 935.91 26.9
-3 3 0 950.9 27.9
-3 3 0 908.11 27.4
2 -3 0 286.47 12.3
2 -3 0 278.27 9.4
2 -3 0 283.67 10.6
-2 3 0 285.07 10.3
-2 3 0 275.37 12.3
-2 3 0 281.77 9.4
-2 3 0 286.17 10.4
1 -3 0 1745.63 47.7
1 -3 0 1740.43 46.6
1 -3 0 1683.93 47.7
1 -3 0 1728.33 48.8
1 -3 0 1702.63 46.3
-1 3 0 1720.83 46.1
-1 3 0 1647.54 48.7
-1 3 0 1676.13 47.2
-1 3 0 1718.63 47.5
-1 3 0 1717.43 47.1
0 -3 0 313.37 10.9
0 -3 0 301.97 10.5
0 -3 0 322.17 10.1
0 -3 0 310.87 9.8
0 -3 0 321.97 11.8
0 3 0 311.37 11.9
0 3 0 309.97 9.5
0 3 0 324.47 10.8
0 3 0 304.57 10.8
0 3 0 307.47 9.7
0 3 0 314.97 9.9
0 3 0 308.67 10.9
-1 -3 0 1.7 1.9
-1 -3 0 2.5 2.1
-1 -3 0 -2.5 2.3
-1 -3 0 0.5 0.9
-1 -3 0 2.3 1.6
1 3 0 -0.2 1.8
1 3 0 0.4 1.3
1 3 0 0.5 1.2
1 3 0 -0.8 2.6
1 3 0 1.3 1.1
1 3 0 -1.4 2.8
1 3 0 1.8 2
1 3 0 2.3 2.2
-2 -3 0 10.2 2.8
-2 -3 0 8.8 2.4
-2 -3 0 10.1 2.7
2 3 0 9.4 2.4
2 3 0 9.6 3.8
2 3 0 6.8 1.8
2 3 0 6.4 4.1
2 3 0 6.7 3.3
2 3 0 7.4 2.8
-3 -3 0 65.79 5.8
-3 -3 0 59.19 5.3
3 3 0 68.29 10.2
-4 -3 0 248.38 12
-4 -3 0 249.38 12.4
4 3 0 236.08 18.2
4 3 0 256.57 17.8
-5 -3 0 337.07 15.7
-5 -3 0 330.57 16
5 3 0 335.07 23
5 3 0 324.67 23.4
-6 -3 0 5.8 6.7
-6 -3 0 10 7.6
6 3 0 -3.7 13.8
6 3 0 1.5 13.4
-7 -3 0 15.5 8.1
7 3 0 25.1 18.4
7 3 0 12.9 17.8
-8 -3 0 14.9 9.9
8 3 0 -0.1 22.5
8 3 0 42.8 25.4
10 -4 0 39.4 24.3
-10 4 0 29.6 7.7
-10 4 0 24.9 8.1
9 -4 0 23.5 15.5
9 -4 0 18.3 18.1
-9 4 0 16.6 6.7
-9 4 0 20.8 5.9
8 -4 0 5.9 12.3
8 -4 0 10.2 13.6
-8 4 0 9.5 5.1
-8 4 0 18.2 4.6
7 -4 0 2.2 9.9
-7 4 0 -2.2 3.5
-7 4 0 1.2 3.7
-7 4 0 -1.7 3.3
6 -4 0 10.9 4.3
6 -4 0 7.1 7
-6 4 0 3.4 2.9
-6 4 0 -0.4 2.9
-6 4 0 -2.8 2.8
5 -4 0 111.09 8.1
5 -4 0 106.69 12.1
-5 4 0 116.99 7.1
-5 4 0 112.69 6.7
4 -4 0 141.89 11.2
4 -4 0 141.69 8.2
-4 4 0 126.29 7.3
-4 4 0 132.39 8
-4 4 0 141.09 6.7
3 -4 0 39.4 6.8
3 -4 0 37.2 4.6
-3 4 0 42.9 7.5
-3 4 0 36.8 3.5
-3 4 0 30.9 4.7
-3 4 0 43.4 4.1
2 -4 0 768.12 23.3
2 -4 0 821.12 25.4
2 -4 0 813.72 27.1
-2 4 0 811.32 23.2
-2 4 0 837.62 24.8
-2 4 0 753.62 26.8
-2 4 0 725.83 24.3
1 -4 0 893.31 25.6
1 -4 0 895.01 25.9
1 -4 0 881.41 27.6
1 -4 0 897.21 28.5
-1 4 0 863.91 26.8
-1 4 0 889.41 25.2
-1 4 0 860.81 28.5
-1 4 0 832.22 26.4
-1 4 0 917.11 26.9
0 -4 0 65.79 4.8
0 -4 0 72.59 5.4
0 -4 0 65.59 4.5
0 -4 0 70.39 6
0 -4 0 68.49 3.8
0 4 0 70.99 4
0 4 0 69.19 3.8
0 4 0 61.69 3.7
0 4 0 74.09 5.4
0 4 0 75.29 4.9
0 4 0 63.29 6.4
0 4 0 64.29 5.1
-1 -4 0 64.49 5.6
-1 -4 0 62.19 6.2
-1 -4 0 70.89 4.9
-1 -4 0 64.59 5.3
1 4 0 67.19 7.2
1 4 0 74.89 3.8
1 4 0 71.79 5.6
1 4 0 73.59 7.6
1 4 0 68.29 6.2
1 4 0 75.19 5
1 4 0 70.89 4.8
1 4 0 76.49 4
-2 -4 0 -0.8 2.6
-2 -4 0 2.8 2.8
-2 -4 0 1.7 3.3
-2 -4 0 -4.6 3.6
2 4 0 -0.7 2
2 4 0 3.6 3.1
2 4 0 1.4 4.6
-3 -4 0 1.9 3.9
-3 -4 0 1.5 3.4
3 4 0 -0.8 2.7
3 4 0 -1.2 6.4
3 4 0 4 3.4
-4 -4 0 38.2 6.9
-4 -4 0 32.8 6.3
4 4 0 16 9.1
4 4 0 55.89 11.3
-5 -4 0 135.29 10.9
-5 -4 0 132.19 12.1
5 4 0 112.29 20.3
5 4 0 133.29 20
-6 -4 0 15.3 7.6
-6 -4 0 8.3 8.6
6 4 0 -6.2 16.2
6 4 0 12.1 14.9
-7 -4 0 1.5 8.8
7 4 0 -29.2 20.8
7 4 0 2.6 20.5
-8 -4 0 13.3 11.3
8 4 0 -35.7 25.9
8 4 0 32.6 29
10 -5 0 46.9 23.6
-10 5 0 32.1 7.9
9 -5 0 26.4 17.3
-9 5 0 11.1 6
8 -5 0 13.7 13.5
-8 5 0 1.8 3.9
-8 5 0 -1.5 4.7
-8 5 0 -0.9 4.3
7 -5 0 43.2 11.5
-7 5 0 36.6 5.3
-7 5 0 38.7 5.3
6 -5 0 42.5 9.8
-6 5 0 38.8 5.6
-6 5 0 40.8 4.9
5 -5 0 27.6 7.9
-5 5 0 34.3 5
-5 5 0 35.7 5.1
4 -5 0 32.5 6.8
4 -5 0 31.6 5.1
-4 5 0 37.2 5
-4 5 0 31.4 4.2
3 -5 0 207.48 10.7
3 -5 0 210.18 12.9
-3 5 0 198.38 9.8
-3 5 0 207.78 8.6
2 -5 0 641.44 22.6
2 -5 0 624.14 23.6
2 -5 0 641.84 20.2
-2 5 0 643.54 21.6
-2 5 0 647.64 19.7
1 -5 0 43.2 4.8
1 -5 0 37 6.3
1 -5 0 44.5 4.9
-1 5 0 40.8 3.8
-1 5 0 35.5 6
-1 5 0 36.1 4.6
-1 5 0 37.9 4.1
0 -5 0 28.6 4.6
0 -5 0 31 5
0 -5 0 29.8 3.6
0 -5 0 33.7 5
0 5 0 23.4 3.5
0 5 0 38.1 3.6
0 5 0 20.9 5
0 5 0 26 3.7
0 5 0 31.9 4
-1 -5 0 2.4 2.7
-1 -5 0 1.6 3.8
1 5 0 1.4 1.9
1 5 0 0 2
1 5 0 6.9 4.9
1 5 0 1.2 2.6
1 5 0 4 4.2
1 5 0 4.6 3.8
-2 -5 0 46.3 8
-2 -5 0 37.5 5.7
-2 -5 0 50.49 5.6
2 5 0 30.3 5.2
2 5 0 36.8 5
2 5 0 40.3 4.1
2 5 0 41.1 8.6
-3 -5 0 6.7 4.4
-3 -5 0 -0.4 4.8
3 5 0 0 3.5
3 5 0 -2.9 5
3 5 0 -0.8 7.8
-4 -5 0 33.7 6.7
-4 -5 0 25.4 6
4 5 0 22.5 11.5
4 5 0 38.1 11.2
-5 -5 0 40.6 9
-5 -5 0 31.7 8.5
5 5 0 32.2 16.2
5 5 0 36.7 15.1
-6 -5 0 -1.1 7.9
-6 -5 0 4.9 9.5
6 5 0 11.2 18.4
6 5 0 12.2 18.6
-7 -5 0 -15.2 9.9
-7 -5 0 5.2 11.2
7 5 0 27.6 24.9
7 5 0 -31.5 22.1
10 -6 0 -19 22.3
-10 6 0 15.4 7.8
9 -6 0 13.2 17.4
-9 6 0 9.2 6.3
8 -6 0 33 16.2
-8 6 0 11.1 5.2
-8 6 0 10.6 5
7 -6 0 -7.8 10.9
-7 6 0 -4.2 4.3
-7 6 0 3.8 4.5
6 -6 0 21.8 8.9
-6 6 0 12.8 4.1
-6 6 0 13.8 4
5 -6 0 110.69 14.1
-5 6 0 98.39 8.3
-5 6 0 109.49 7.3
4 -6 0 42.6 8
-4 6 0 50.69 5.1
-4 6 0 34.2 5.7
3 -6 0 0.4 5.2
-3 6 0 -0.7 2.4
-3 6 0 1.7 3
2 -6 0 9 5.1
2 -6 0 1.4 3.9
-2 6 0 8 2.9
-2 6 0 6.3 2.3
-2 6 0 -4.8 4.8
1 -6 0 202.78 12.4
1 -6 0 207.28 9.7
-1 6 0 205.88 8.8
-1 6 0 182.78 12.1
-1 6 0 205.08 10.3
0 -6 0 -0.3 3.5
0 -6 0 0.2 4.4
0 -6 0 -1 3.2
0 6 0 3 3.5
0 6 0 0.3 3.1
0 6 0 1.5 2.2
0 6 0 2.8 3.3
-1 -6 0 -3.2 4.1
-1 -6 0 -1.7 3.6
1 6 0 1.3 2.5
1 6 0 1.6 3.2
1 6 0 -4.3 6.2
1 6 0 -0.6 2.9
-2 -6 0 112.69 9.5
-2 -6 0 105.49 11.5
-2 -6 0 110.59 8.6
2 6 0 121.09 8.1
2 6 0 104.89 6.4
2 6 0 114.59 6.4
2 6 0 95.29 15.3
-3 -6 0 517.65 21.5
-3 -6 0 526.15 20.5
3 6 0 504.95 18.6
3 6 0 523.25 29.8
-4 -6 0 29.6 7.6
-4 -6 0 35.3 8.9
4 6 0 25.3 16.2
4 6 0 -1.9 15.5
4 6 0 23.4 5.5
-5 -6 0 -7.1 9.2
-5 -6 0 10 7.9
5 6 0 16.4 17
5 6 0 -1 20
-6 -6 0 25.3 11
-6 -6 0 50.69 11.2
6 6 0 33.1 22.6
6 6 0 -7.2 23.3
-7 -6 0 15.2 13.6
-7 -6 0 17.3 11.9
7 6 0 20.9 28.7
7 6 0 -2.4 29.2
9 -7 0 46.8 18.6
-9 7 0 62.59 8.8
8 -7 0 13.4 14.7
-8 7 0 7.3 6.1
-8 7 0 14 5.8
7 -7 0 -16.9 11.3
-7 7 0 -5.9 4.6
-7 7 0 14.1 5.3
6 -7 0 30 11.1
-6 7 0 29.6 5.7
-6 7 0 24.1 5.2
5 -7 0 67.89 11.1
-5 7 0 77.69 8.3
-5 7 0 82.99 7.1
4 -7 0 330.97 20.5
-4 7 0 359.76 16.1
-4 7 0 370.26 14.1
3 -7 0 114.69 12.5
-3 7 0 109.79 9
-3 7 0 99.19 7
2 -7 0 -9.2 5.5
2 -7 0 -2.5 4
-2 7 0 2.5 3.6
-2 7 0 1.7 3.2
1 -7 0 5.3 4.3
1 -7 0 -3.4 5.4
-1 7 0 3.8 3.8
-1 7 0 -0.7 2.8
0 -7 0 35.4 5.6
0 -7 0 27.7 6.8
0 -7 0 43.4 6.8
0 7 0 35.5 5.2
0 7 0 47.5 7.5
0 7 0 45.5 7.2
-1 -7 0 259.27 16
-1 -7 0 265.47 12
-1 -7 0 245.08 13.5
1 7 0 278.87 19.6
1 7 0 255.57 10.5
1 7 0 264.87 13
-2 -7 0 12.3 7.7
-2 -7 0 1.5 5.1
-2 -7 0 3.9 5.8
2 7 0 -3.4 10.1
2 7 0 -0.8 3.3
2 7 0 7 4.8
-3 -7 0 12.3 7.7
-3 -7 0 7.5 6
3 7 0 10.9 5.8
3 7 0 3.3 14.6
-4 -7 0 1.9 8
-4 -7 0 3.9 8.8
4 7 0 -13.1 18
4 7 0 -18 17.8
4 7 0 4.7 5.9
-5 -7 0 13.6 11.2
-5 -7 0 1.3 9.7
5 7 0 25.2 22.7
5 7 0 31.3 21.7
-6 -7 0 18.4 13.3
-6 -7 0 8 10.7
6 7 0 -7.6 28.2
6 7 0 35.9 26.5
9 -8 0 -6.7 18.3
-9 8 0 -3.5 6.9
-9 8 0 -9.9 8.3
8 -8 0 -0.7 15.9
-8 8 0 19.6 7.4
-8 8 0 13.9 6.7
7 -8 0 9.1 12.8
-7 8 0 42.3 7
-7 8 0 36.8 7.7
6 -8 0 12.7 11.4
-6 8 0 3.9 5.6
-6 8 0 -5.8 4.9
5 -8 0 226.88 20.5
-5 8 0 251.97 14.6
-5 8 0 274.87 13.2
4 -8 0 191.88 17.5
-4 8 0 225.88 10.8
-4 8 0 193.98 13
3 -8 0 2.2 7.7
-3 8 0 4.2 4.1
-3 8 0 7.4 4.6
2 -8 0 24.9 7.5
2 -8 0 31.9 5.8
-2 8 0 25.5 4.6
-2 8 0 29.8 6
1 -8 0 1.3 5.4
1 -8 0 6.4 7
-1 8 0 7.2 5.2
-1 8 0 11.5 4
0 -8 0 84.59 10.2
0 -8 0 86.49 7.4
0 8 0 71.19 9.9
0 8 0 74.69 7.4
-1 -8 0 141.49 12.1
-1 -8 0 146.49 10
-1 -8 0 159.58 15.8
1 8 0 137.09 8.8
1 8 0 150.08 11.4
1 8 0 131.49 20.6
-2 -8 0 47.8 11.1
-2 -8 0 45.9 7.4
-2 -8 0 63.89 10.1
2 8 0 53.49 17.1
2 8 0 47.7 7.4
2 8 0 46.5 6.9
-3 -8 0 -6.9 8.2
-3 -8 0 4.6 7.5
3 8 0 -16.3 18.8
3 8 0 5.9 6.9
3 8 0 -12.6 18.1
-4 -8 0 2.2 10.1
-4 -8 0 -0.3 8.5
4 8 0 42.6 22.5
4 8 0 1.2 21.9
-5 -8 0 -8.1 9.9
-5 -8 0 -6.7 12.9
5 8 0 -31.2 26.8
5 8 0 66.19 26.9
8 -9 0 9.5 16.2
-8 9 0 5.1 7
-8 9 0 21.9 8.3
7 -9 0 12.2 14.8
-7 9 0 -4 7.6
-7 9 0 5.1 6.6
6 -9 0 11.4 11.9
-6 9 0 -9.2 5.4
-6 9 0 -0.4 6.4
5 -9 0 130.99 20.6
-5 9 0 117.49 10.6
-5 9 0 124.59 14
4 -9 0 16 10.2
-4 9 0 23.1 6.7
-4 9 0 18.9 7.8
3 -9 0 -9.7 8.2
-3 9 0 9.7 5.4
-3 9 0 13.5 7.9
2 -9 0 44.2 7.2
2 -9 0 16.5 8.4
-2 9 0 42.3 6.1
-2 9 0 31.1 7.5
1 -9 0 206.38 18.1
1 -9 0 230.88 14.3
-1 9 0 208.78 15.9
-1 9 0 222.48 11.8
0 -9 0 128.19 10.2
0 -9 0 136.99 18.1
0 -9 0 161.88 12.8
0 9 0 140.99 13.1
0 9 0 133.99 18.8
0 9 0 135.69 9.8
-1 -9 0 35.7 11.8
-1 -9 0 67.69 11.2
-1 -9 0 50.09 9.3
1 9 0 56.29 8.4
1 9 0 63.29 17
1 9 0 49.9 8.2
-2 -9 0 9.2 7.5
-2 -9 0 11.4 11.8
-2 -9 0 16.3 9.4
2 9 0 1.5 17.1
2 9 0 16.6 8
-3 -9 0 32.1 9.5
-3 -9 0 57.49 12.2
3 9 0 14.7 8.6
3 9 0 63.39 25.1
3 9 0 49.6 23.4
-4 -9 0 20.1 13.2
-4 -9 0 8.3 10.5
4 9 0 -4.4 27.5
4 9 0 30.9 28
8 -10 0 11.8 18.4
-8 10 0 2.1 9.4
-8 10 0 -10.4 8
7 -10 0 13.8 16
-7 10 0 27.7 8.1
-7 10 0 36.2 9.3
6 -10 0 17.8 14.7
-6 10 0 14.9 8.4
-6 10 0 32.3 7.8
5 -10 0 -24.9 11.9
-5 10 0 -12.8 8.2
-5 10 0 -0.6 6
4 -10 0 25.6 11.7
-4 10 0 38.6 9
-4 10 0 45.3 7.3
3 -10 0 -4.3 10
-3 10 0 20.9 6.6
-3 10 0 13 9.3
2 -10 0 9.7 10.3
2 -10 0 4.4 7.4
-2 10 0 5.4 8.8
-2 10 0 1.7 6.6
1 -10 0 16.3 11.4
1 -10 0 42.6 8.8
-1 10 0 44.6 7.1
-1 10 0 35.6 8.3
0 -10 0 5.9 11.3
0 -10 0 20.3 9.3
0 -10 0 2.8 7.3
0 10 0 12.5 8.3
0 10 0 16.8 16.3
0 10 0 -3.5 6.1
0 10 0 6.8 12.6
-1 -10 0 15.4 13.4
-1 -10 0 25.2 10.5
-1 -10 0 3.8 8
1 10 0 13.9 5.6
1 10 0 23.5 16.2
1 10 0 9 18.3
1 10 0 19.6 9.4
-2 -10 0 24.6 9.8
-2 -10 0 29.8 15.8
-2 -10 0 50.09 11.9
2 10 0 34.4 10.1
2 10 0 30.4 29.5
2 10 0 30.2 22.8
-3 -10 0 50.19 13.8
-3 -10 0 27.6 10.8
3 10 0 73.09 33
3 10 0 85.19 28.4
7 -11 0 -27.3 17.4
-7 11 0 13.8 10.9
-7 11 0 19.4 8.8
6 -11 0 10.2 16.1
-6 11 0 10.5 7.9
-6 11 0 21.5 10.7
5 -11 0 15.2 14.8
-5 11 0 42.6 8.2
-5 11 0 33.2 11.5
4 -11 0 17.8 12.8
-4 11 0 29.2 8.3
-4 11 0 22.2 11.3
3 -11 0 55.69 13.9
-3 11 0 54.69 13.3
-3 11 0 34.9 8.2
2 -11 0 51.39 10.1
2 -11 0 14.9 12.6
-2 11 0 31.5 9.6
-2 11 0 22.9 7.9
1 -11 0 10.5 13.5
1 -11 0 31.8 10.2
-1 11 0 4.9 9.8
-1 11 0 34.2 8.5
0 -11 0 31.8 14.8
0 -11 0 13.7 10.2
0 11 0 5 10
0 11 0 10.5 7.3
0 11 0 18.5 19.2
-1 -11 0 -0.8 16.5
1 11 0 -0.6 23
1 11 0 -2.8 11.2
5 -12 0 11.5 15.8
-5 12 0 20.1 15
-5 12 0 18 9.7
4 -12 0 6.6 15.7
-4 12 0 4.5 12.1
-4 12 0 -5.4 8.7
3 -12 0 0.3 15.4
-3 12 0 -3.7 9.2
-3 12 0 -15.8 10.8
2 -12 0 10 16.5
-2 12 0 11.1 11.5
-2 12 0 8.2 9.7
1 -12 0 37.9 17.2
1 -12 0 47.4 11.9
-1 12 0 31.7 9.5
-1 12 0 53.29 23.5
-1 12 0 27.8 12.1
-1 12 -1 22.6 10
-1 12 -1 9.8 11.7
-1 12 -1 -13.4 20.5
1 -12 1 17.7 16.4
1 -12 1 11.8 12.9
-2 12 -1 2.8 11.3
-2 12 -1 20.4 10.3
2 -12 1 -7.6 15.8
-3 12 -1 -5.9 14
-3 12 -1 -21.8 9.2
3 -12 1 -5.5 15.1
-4 12 -1 23.4 14.4
-4 12 -1 -6.1 9.2
4 -12 1 -3.6 15.2
-5 12 -1 19.2 9.8
-5 12 -1 28.5 14.6
5 -12 1 -4.9 15.5
1 11 -1 23.6 33.9
1 11 -1 16.4 20.7
1 11 -1 6.4 11.2
-1 -11 1 24 11.3
-1 -11 1 49.5 16.7
0 11 -1 74.49 9.1
0 11 -1 76.29 20.1
0 11 -1 85.69 11.9
0 -11 1 81.29 14.8
-1 11 -1 28.2 8.3
-1 11 -1 6.8 10.3
1 -11 1 23.1 9.3
1 -11 1 -0.6 14.2
-2 11 -1 14 8.7
-2 11 -1 16.2 11
2 -11 1 -12.2 12.3
2 -11 1 4.3 8.2
-3 11 -1 17.3 11.5
-3 11 -1 21.9 8.1
3 -11 1 13.7 12.5
-4 11 -1 61.19 13
-4 11 -1 55.19 8.9
4 -11 1 32 14.6
-5 11 -1 4.7 7.8
-5 11 -1 11.1 10.7
5 -11 1 -7 14.3
-6 11 -1 29.2 8.8
-6 11 -1 33.1 10.9
6 -11 1 -8.9 15.8
-7 11 -1 3.3 8.8
-7 11 -1 19.1 10.8
3 10 -1 44.8 26.1
3 10 -1 17.3 25.3
3 10 -1 14.4 33.1
-3 -10 1 2 12
-3 -10 1 6.4 11
2 10 -1 39.8 27.8
2 10 -1 16.7 9.5
2 10 -1 7 20.5
2 10 -1 55.69 22.2
-2 -10 1 12.9 10.5
-2 -10 1 12.3 15.6
-2 -10 1 -2.8 9.2
1 10 -1 37.8 17.4
1 10 -1 21.6 8.7
1 10 -1 52.19 17.1
1 10 -1 28.2 6.5
-1 -10 1 36.8 9.9
-1 -10 1 30.8 13.1
-1 -10 1 23.2 8.5
0 10 -1 0.1 6.2
0 10 -1 12.1 8.5
0 10 -1 0.9 13.4
0 10 -1 -8.6 14.6
0 -10 1 5.4 7.1
0 -10 1 11.8 11.4
0 -10 1 2.6 8
-1 10 -1 81.99 10.8
-1 10 -1 53.79 7.9
1 -10 1 61.89 12.9
1 -10 1 71.59 9.8
-2 10 -1 12.5 8.4
-2 10 -1 9 6.8
2 -10 1 13.8 6.8
2 -10 1 7.3 10.1
-3 10 -1 6.3 9.2
-3 10 -1 9.6 7.2
3 -10 1 10.6 10.3
-4 10 -1 20.4 9.2
-4 10 -1 4.6 6.7
4 -10 1 -6.6 11.1
-5 10 -1 -2.1 6.4
-5 10 -1 -1.8 7.7
5 -10 1 9.8 12.4
-6 10 -1 36 7.8
-6 10 -1 42.9 9
6 -10 1 35 14.9
-7 10 -1 15.7 8.9
-7 10 -1 18.5 7.7
7 -10 1 -25.2 15.9
-8 10 -1 9.7 9.5
-8 10 -1 15.7 8.4
8 -10 1 -2.4 18.4
4 9 -1 23.3 29
4 9 -1 16 25.9
-4 -9 1 5.5 12.4
-4 -9 1 2.3 10
3 9 -1 3.5 24.8
3 9 -1 -20.6 19.1
3 9 -1 15.5 8.5
-3 -9 1 11.9 10.2
-3 -9 1 7.6 8.3
2 9 -1 23.8 21.7
2 9 -1 6.9 4.8
2 9 -1 -5.9 17.1
2 9 -1 -9.1 7.4
-2 -9 1 16.2 9.1
-2 -9 1 2.2 11.7
-2 -9 1 3.3 7.4
1 9 -1 7.2 6.7
1 9 -1 5 5
1 9 -1 10.2 13.4
1 9 -1 -2.2 13.6
-1 -9 1 3.4 6.5
-1 -9 1 6.5 7.7
-1 -9 1 5 10.3
0 9 -1 68.89 12.5
0 9 -1 32.2 7.4
0 9 -1 51.99 6.4
0 -9 1 31 9.9
0 -9 1 43.3 7.7
0 -9 1 48.7 6.7
-1 9 -1 49.6 8.8
-1 9 -1 59.59 6.6
1 -9 1 67.09 9.4
1 -9 1 40.5 9.7
-2 9 -1 16.2 5.2
-2 9 -1 31.4 7.5
2 -9 1 17.3 8.4
-3 9 -1 13.2 6.8
-3 9 -1 -3.3 4.9
3 -9 1 -0.8 8.2
-4 9 -1 29 6.4
-4 9 -1 41.4 8.9
4 -9 1 15 10.1
-5 9 -1 16.4 5.4
-5 9 -1 22.3 7.2
5 -9 1 20.2 11.6
-6 9 -1 21.1 6
-6 9 -1 12.5 6.4
6 -9 1 33.2 13.2
-7 9 -1 41.7 7.8
-7 9 -1 37.1 9.4
7 -9 1 36.7 14.4
-8 9 -1 9.3 6.8
-8 9 -1 1.4 8
5 8 -1 -9.3 25
5 8 -1 -18.8 27
-5 -8 1 10.1 12.4
-5 -8 1 -7.5 9.7
4 8 -1 -22.6 21.9
4 8 -1 0.2 21.3
-4 -8 1 8.1 8.7
-4 -8 1 7.1 10.6
3 8 -1 32 16.8
3 8 -1 18.9 7
3 8 -1 29.9 19.6
-3 -8 1 22 8.7
-3 -8 1 12.5 7.8
2 8 -1 17.5 4.6
2 8 -1 21.3 6.3
2 8 -1 28 14.3
-2 -8 1 16.7 9.7
-2 -8 1 25.3 6.6
-2 -8 1 23.9 7.6
1 8 -1 52.79 7.1
1 8 -1 47.6 12
1 8 -1 51.59 7
-1 -8 1 56.69 8.4
-1 -8 1 42.7 7.9
-1 -8 1 46.4 8.8
0 8 -1 16.5 5.7
0 8 -1 16.1 4.1
0 8 -1 13.8 9
0 -8 1 17.9 7.4
0 -8 1 15.6 5
0 -8 1 24 5.9
-1 8 -1 29.5 5.9
-1 8 -1 27.8 4.7
1 -8 1 23.6 5.3
1 -8 1 7.3 6.9
-2 8 -1 -4 3.7
-2 8 -1 2.3 4.8
2 -8 1 -0.7 6.5
2 -8 1 3.5 4.7
-3 8 -1 25.3 4.9
-3 8 -1 23.6 6
3 -8 1 18 7.9
-4 8 -1 7.1 4.1
-4 8 -1 6.9 5.3
4 -8 1 15.8 7.7
-5 8 -1 85.29 10.3
-5 8 -1 100.29 8.8
5 -8 1 104.89 16.2
-6 8 -1 -0.9 5.5
-6 8 -1 0.5 4.8
6 -8 1 14.2 11.8
-7 8 -1 -0.6 5.4
-7 8 -1 -1.1 5.9
7 -8 1 -15.6 12.1
-8 8 -1 -3.3 6
-8 8 -1 6.3 7.6
8 -8 1 6.2 15.4
-9 8 -1 59.49 9.8
-9 8 -1 64.39 9.4
6 7 -1 20.4 25.9
6 7 -1 -3.7 26.2
-6 -7 1 -3.5 12.4
-6 -7 1 14.1 10.3
5 7 -1 17.1 21.5
5 7 -1 -10.5 20.2
-5 -7 1 -3.5 10.6
-5 -7 1 8.8 9.2
4 7 -1 11.8 17.4
4 7 -1 -6.5 17.2
4 7 -1 8 5.6
-4 -7 1 5.1 8.8
-4 -7 1 11.2 7.2
3 7 -1 10.8 12.6
3 7 -1 9.4 5.4
3 7 -1 -3.5 14.2
-3 -7 1 5.9 7.2
-3 -7 1 13.9 6
2 7 -1 727.03 34.3
2 7 -1 710.23 22.6
2 7 -1 737.13 25.1
-2 -7 1 734.63 26.8
-2 -7 1 729.33 29.1
-2 -7 1 727.93 25.4
1 7 -1 297.47 11.8
1 7 -1 286.07 19.7
1 7 -1 301.97 14.4
-1 -7 1 317.87 17
-1 -7 1 299.37 14.5
-1 -7 1 307.17 13.1
0 7 -1 88.59 8.4
0 7 -1 85.59 6.5
0 7 -1 80.29 11.1
0 -7 1 77.69 10.3
0 -7 1 87.09 8.1
0 -7 1 84.99 6.7
-1 7 -1 16.6 4.7
-1 7 -1 16 3.7
1 -7 1 14 5.8
1 -7 1 13.9 4.8
-2 7 -1 43.8 5.7
-2 7 -1 36.6 5.7
2 -7 1 39.5 7.2
2 -7 1 41.6 7
-3 7 -1 29 4.1
-3 7 -1 27.1 4.7
3 -7 1 29.6 7.8
3 -7 1 24.6 5.9
-4 7 -1 134.59 9.9
-4 7 -1 132.79 8.1
4 -7 1 125.89 14.5
4 -7 1 131.49 11.4
-5 7 -1 80.49 7.2
-5 7 -1 81.89 8.4
5 -7 1 79.69 13.8
5 -7 1 85.19 10.3
-6 7 -1 6.6 4.6
-6 7 -1 7.2 4.1
6 -7 1 -11.3 9
-7 7 -1 16.5 5.3
-7 7 -1 20.1 5.6
7 -7 1 23.6 12.2
-8 7 -1 -5.8 5.9
-8 7 -1 7.6 5.5
8 -7 1 16.4 14.1
-9 7 -1 5.6 6.7
9 -7 1 -9.8 17.9
7 6 -1 36.1 29
7 6 -1 7.1 28.3
-7 -6 1 3.5 11.5
6 6 -1 9.3 22.6
6 6 -1 22 20.7
-6 -6 1 -6.5 10.3
-6 -6 1 7 9.4
5 6 -1 41.9 19
5 6 -1 9.3 18.9
-5 -6 1 17.8 7.8
-5 -6 1 28.6 10.4
4 6 -1 -0.6 14.3
4 6 -1 6.8 13.5
-4 -6 1 7.2 6
-4 -6 1 4 7.2
3 6 -1 308.47 22.7
3 6 -1 310.27 23.4
3 6 -1 320.77 12
3 6 -1 298.57 13.1
-3 -6 1 311.17 15.8
-3 -6 1 305.57 14.6
2 6 -1 216.88 9.7
2 6 -1 225.28 10.7
2 6 -1 201.18 9.6
2 6 -1 224.98 18.2
-2 -6 1 237.38 14.3
-2 -6 1 234.58 11.4
-2 -6 1 227.18 12.4
1 6 -1 32.1 8
1 6 -1 27.8 3.6
1 6 -1 18.8 3.8
1 6 -1 24.2 4.6
-1 -6 1 25.2 4.9
-1 -6 1 15.6 5.3
-1 -6 1 30.9 5.5
0 6 -1 89.19 7.2
0 6 -1 83.89 6.2
0 6 -1 82.19 5.7
0 -6 1 92.89 6.1
0 -6 1 87.19 7.1
0 -6 1 93.69 8.9
-1 6 -1 19.1 3.1
-1 6 -1 15.7 3.6
-1 6 -1 16.1 4.6
1 -6 1 10.7 4.7
1 -6 1 19 3.8
1 -6 1 25.8 4.7
-2 6 -1 583.44 18.9
-2 6 -1 583.94 20.8
2 -6 1 566.34 21.6
2 -6 1 596.54 23.2
-3 6 -1 174.38 9.9
-3 6 -1 184.68 8.6
3 -6 1 187.78 10.8
3 -6 1 189.68 13.3
-4 6 -1 47.5 5.3
-4 6 -1 52.09 6.6
4 -6 1 62.79 10.9
4 -6 1 57.09 7.6
-5 6 -1 72.69 6.5
-5 6 -1 67.89 7.3
5 -6 1 65.19 8.4
5 -6 1 75.39 12.6
-6 6 -1 10.3 4.2
-6 6 -1 10.7 3.8
6 -6 1 16.4 5.6
6 -6 1 11.5 9
-7 6 -1 -2.5 4.3
-7 6 -1 5.8 4
7 -6 1 0.9 11.1
-8 6 -1 13.2 5.4
-8 6 -1 14.8 5.3
8 -6 1 31.6 14.6
-9 6 -1 1.6 5.9
9 -6 1 0.4 17.6
7 5 -1 -19.1 23
7 5 -1 -8.6 22.9
-7 -5 1 13.5 9.7
6 5 -1 32.4 18.8
6 5 -1 -14.5 17.9
-6 -5 1 9.4 8.9
-6 -5 1 0.2 7.8
5 5 -1 3.7 15.6
5 5 -1 12.1 16.6
-5 -5 1 -0.3 7.7
-5 -5 1 3.7 7
4 5 -1 408.16 25.9
4 5 -1 388.16 26.4
-4 -5 1 389.16 18.3
-4 -5 1 378.26 17.3
3 5 -1 -7.3 4.1
3 5 -1 1 8
3 5 -1 -1.6 8.1
3 5 -1 -1.9 3.3
3 5 -1 1.4 2.7
3 5 -1 0 3.2
-3 -5 1 5.7 4.7
-3 -5 1 1 4
2 5 -1 269.97 16.9
2 5 -1 277.77 11.1
2 5 -1 274.07 10.4
2 5 -1 260.07 11.4
2 5 -1 271.67 9.7
-2 -5 1 271.97 13.7
-2 -5 1 274.07 9.5
-2 -5 1 258.27 12.3
-2 -5 1 272.77 11.8
1 5 -1 3.3 2.2
1 5 -1 3.1 3.7
1 5 -1 3.5 4.9
1 5 -1 6.8 3.6
1 5 -1 3 2.5
1 5 -1 0.6 2.5
-1 -5 1 0.5 2.6
-1 -5 1 1.6 3.6
-1 -5 1 3.3 3
0 5 -1 119.59 7.1
0 5 -1 111.29 6.9
0 5 -1 117.49 5.7
0 5 -1 110.59 5.7
0 5 -1 123.19 6
0 -5 1 116.89 5.8
0 -5 1 114.39 7.6
0 -5 1 131.39 8.5
0 -5 1 104.79 6.6
-1 5 -1 0.6 2.2
-1 5 -1 0.7 2.1
-1 5 -1 -3 4.7
-1 5 -1 3.4 3.2
-1 5 -1 0 1.7
1 -5 1 0.5 2.3
1 -5 1 4.2 3.4
1 -5 1 -2.1 3
1 -5 1 3.2 2.6
-2 5 -1 128.69 6.3
-2 5 -1 129.19 7.7
-2 5 -1 114.39 10.8
2 -5 1 122.79 8
2 -5 1 129.39 9.3
-3 5 -1 122.19 7.7
-3 5 -1 130.39 6.5
3 -5 1 135.89 8.2
3 -5 1 137.59 10.5
-4 5 -1 112.79 7.5
-4 5 -1 113.99 6.5
4 -5 1 102.29 11.1
4 -5 1 106.89 7.9
-5 5 -1 107.09 7.8
-5 5 -1 105.29 7
5 -5 1 108.19 13.1
5 -5 1 100.29 8.2
-6 5 -1 12.7 3.7
-6 5 -1 10.7 3.4
6 -5 1 21.1 8.4
6 -5 1 5.9 4.3
-7 5 -1 24.1 4.6
-7 5 -1 20.7 4.6
-7 5 -1 29.8 4.6
7 -5 1 27.5 10.8
-8 5 -1 7.6 4.6
-8 5 -1 1.1 4.8
-8 5 -1 -8.8 4.4
8 -5 1 -7.2 13.1
-9 5 -1 25 6.2
-9 5 -1 24.2 5.4
9 -5 1 32.7 18.3
-10 5 -1 -3.5 6.9
10 -5 1 1.4 21.5
8 4 -1 19.5 28.6
8 4 -1 28.9 27.2
-8 -4 1 9.3 11.1
7 4 -1 -7.1 20
7 4 -1 -12.6 20.5
-7 -4 1 5.6 8.3
6 4 -1 -2.1 16
6 4 -1 -11.5 16.2
-6 -4 1 8.5 7.2
-6 -4 1 13.9 8.5
5 4 -1 660.93 34.2
5 4 -1 640.94 34.1
-5 -4 1 675.43 25.9
-5 -4 1 674.43 25.5
4 4 -1 267.77 19.7
4 4 -1 222.88 19.4
-4 -4 1 258.87 13
-4 -4 1 263.17 13.5
3 4 -1 0.9 2.1
3 4 -1 4.5 6.9
3 4 -1 5.7 3
3 4 -1 9.3 6.8
-3 -4 1 0.5 3.1
-3 -4 1 2.5 1.8
-3 -4 1 2.9 3.8
2 4 -1 26.2 3.8
2 4 -1 20.9 3.2
2 4 -1 24.1 6.8
2 4 -1 21.7 3
2 4 -1 20.2 3
-2 -4 1 21.2 3.5
-2 -4 1 21 2.8
-2 -4 1 22.1 5
-2 -4 1 24.7 4.3
1 4 -1 1.5 2.5
1 4 -1 1.2 2.3
1 4 -1 -0.7 3.4
1 4 -1 0.4 2.9
1 4 -1 0.6 1.8
1 4 -1 1.4 2.1
1 4 -1 0.8 3.3
1 4 -1 0.9 1.6
-1 -4 1 2 1.4
-1 -4 1 0.2 2.1
-1 -4 1 0.8 2.4
-1 -4 1 3.3 2.8
0 4 -1 53.99 4.3
0 4 -1 54.09 4.4
0 4 -1 50.49 5.7
0 4 -1 52.29 3.4
0 4 -1 53.89 4.5
0 4 -1 52.59 3.5
0 4 -1 57.19 3.8
0 -4 1 53.69 4.6
0 -4 1 50.69 5.2
0 -4 1 51.19 4.1
0 -4 1 50.79 3.3
-1 4 -1 5.9 1.6
-1 4 -1 6.5 2.3
-1 4 -1 4.1 2.1
-1 4 -1 10.6 3.4
-1 4 -1 4.1 1.6
1 -4 1 3.9 2.3
1 -4 1 6 3.1
1 -4 1 7.4 2.1
-2 4 -1 298.07 11.9
-2 4 -1 324.77 11.1
-2 4 -1 341.27 12.6
-2 4 -1 318.87 14.4
2 -4 1 334.77 12.7
2 -4 1 341.17 14.3
2 -4 1 316.77 11.4
-3 4 -1 100.49 6.7
-3 4 -1 113.69 5.6
-3 4 -1 103.29 10
-3 4 -1 110.09 6.6
3 -4 1 112.19 6.8
3 -4 1 112.49 9.1
-4 4 -1 0.7 3.6
-4 4 -1 1.4 1.8
-4 4 -1 -0.6 2.5
4 -4 1 -0.5 2.9
4 -4 1 2.2 4.3
-5 4 -1 36.6 4.6
-5 4 -1 31.8 4
-5 4 -1 34.1 5.2
5 -4 1 35.6 5.3
5 -4 1 39.1 6
5 -4 1 36.5 8.2
-6 4 -1 1.5 2.8
-6 4 -1 4.3 3.2
-6 4 -1 5.4 2.8
6 -4 1 -0.4 7.9
6 -4 1 -5.5 4.2
-7 4 -1 78.19 7.1
-7 4 -1 86.09 7.4
-7 4 -1 83.19 7.1
7 -4 1 104.79 15.7
-8 4 -1 26.7 5.1
-8 4 -1 21.2 5.7
8 -4 1 30.6 15.1
-9 4 -1 76.09 10.7
-9 4 -1 82.89 11
9 -4 1 148.59 23.9
9 -4 1 88.29 18.3
-10 4 -1 9.4 7.9
-10 4 -1 9.1 7.9
10 -4 1 22 22.9
8 3 -1 23 23.3
8 3 -1 38.2 23.5
7 3 -1 8.9 17.4
7 3 -1 -25.6 19.4
-7 -3 1 3.6 8.3
6 3 -1 13.7 13.3
6 3 -1 19.5 13.8
-6 -3 1 13.8 6.7
5 3 -1 40.9 10.6
5 3 -1 64.19 13.1
-5 -3 1 41.6 7.6
-5 -3 1 40.7 6.9
4 3 -1 40.9 10.2
4 3 -1 58.19 10.9
-4 -3 1 39.4 6.6
-4 -3 1 47.7 5.9
3 3 -1 281.47 16.3
3 3 -1 255.97 15.4
3 3 -1 273.27 8.9
-3 -3 1 268.47 8.7
-3 -3 1 267.37 11.2
-3 -3 1 255.97 11.4
2 3 -1 48.1 7.1
2 3 -1 40.5 3.3
2 3 -1 41.3 7.1
2 3 -1 38.8 4.7
2 3 -1 43.5 4.2
2 3 -1 44.9 2.9
2 3 -1 53.09 3.6
2 3 -1 35.3 5.6
-2 -3 1 48.4 4
-2 -3 1 41.4 4.3
-2 -3 1 48.9 6.5
1 3 -1 93.99 3.9
1 3 -1 88.69 5.9
1 3 -1 85.39 5
1 3 -1 95.09 4.7
1 3 -1 90.89 4.6
1 3 -1 96.09 7.2
1 3 -1 93.99 4.6
1 3 -1 95.79 4.7
-1 -3 1 98.29 5.9
-1 -3 1 90.09 4.8
-1 -3 1 91.29 4.7
-1 -3 1 95.39 3.9
-1 -3 1 85.09 4.9
0 3 -1 -0.2 1.2
0 3 -1 -0.6 1.6
0 3 -1 1 1.2
0 3 -1 1 1
0 3 -1 -0.3 1.5
0 3 -1 0.5 2.1
0 3 -1 1 1.3
0 -3 1 1.3 1.1
0 -3 1 1.2 1.8
0 -3 1 -0.3 1.4
0 -3 1 0.9 1.4
0 -3 1 0.7 0.9
-1 3 -1 4580.34 122.89
-1 3 -1 4541.15 120.29
-1 3 -1 4576.84 121.99
-1 3 -1 4486.35 121.39
-1 3 -1 4591.84 120.59
1 -3 1 4609.04 120.89
1 -3 1 4695.53 122.79
1 -3 1 4557.94 121.79
-2 3 -1 3.8 1.8
-2 3 -1 5.1 1.4
-2 3 -1 7 2.8
2 -3 1 3.6 1.6
2 -3 1 5.6 1.9
2 -3 1 6.4 2.7
-3 3 -1 43.1 7.2
-3 3 -1 45 3.5
-3 3 -1 39.6 3
-3 3 -1 40.7 4
3 -3 1 42.8 4.2
3 -3 1 46.8 6.6
3 -3 1 35.9 3.4
-4 3 -1 6 2.6
-4 3 -1 3.9 1.8
-4 3 -1 2.6 2.2
-4 3 -1 4.9 2.4
4 -3 1 1.4 2.3
4 -3 1 5.8 2.6
4 -3 1 7.3 2.5
4 -3 1 6.9 4.8
-5 3 -1 10.7 3
-5 3 -1 13.6 3.1
-5 3 -1 13.2 3.4
-5 3 -1 13.2 2.7
5 -3 1 12.3 3.9
5 -3 1 5.4 6.1
5 -3 1 24.4 4.4
-6 3 -1 32 4.4
-6 3 -1 28.6 4.4
-6 3 -1 31.3 4.9
-6 3 -1 35.7 4.1
6 -3 1 42.1 5
6 -3 1 44.7 10.3
6 -3 1 44.8 9.3
-7 3 -1 36.7 5.6
-7 3 -1 28.1 4.6
7 -3 1 22.3 10.6
7 -3 1 45.6 12
-8 3 -1 47.1 7.2
-8 3 -1 46 5.9
8 -3 1 57.99 14.9
8 -3 1 69.19 16.9
-9 3 -1 124.49 12.5
-9 3 -1 129.99 11
9 -3 1 124.69 20
9 -3 1 137.49 23.7
-10 3 -1 10.6 9.6
10 -3 1 -11.6 22.8
9 2 -1 36 25.3
9 2 -1 -16.5 27.8
-9 -2 1 -3.4 11.1
8 2 -1 10.4 21.6
8 2 -1 15.8 20.1
-8 -2 1 33.7 9.2
7 2 -1 178.08 25.2
7 2 -1 154.98 24.1
-7 -2 1 192.58 14.1
6 2 -1 108.39 19.7
6 2 -1 73.19 15.5
-6 -2 1 86.89 8.8
-6 -2 1 94.59 6.1
5 2 -1 1.9 8.8
5 2 -1 2.2 2.4
5 2 -1 9.6 8.6
-5 -2 1 9.5 4.7
-5 -2 1 4.2 2.3
-5 -2 1 10.7 4.5
4 2 -1 129.19 12.5
4 2 -1 131.49 12.6
4 2 -1 116.69 5.3
-4 -2 1 120.69 8.1
-4 -2 1 125.89 5.4
-4 -2 1 118.09 7.5
3 2 -1 1.3 4
3 2 -1 1.8 3
3 2 -1 -0.7 3.2
3 2 -1 1.6 4.7
3 2 -1 5.4 4.9
3 2 -1 -1.2 1.4
-3 -2 1 -1.5 1.3
-3 -2 1 -1.9 2.3
-3 -2 1 8.2 5.6
-3 -2 1 0.5 2.5
2 2 -1 4.6 1.2
2 2 -1 6.1 3.4
2 2 -1 3.4 2
2 2 -1 4 2.4
2 2 -1 0.2 3.4
2 2 -1 4.8 1.9
-2 -2 1 1.6 2
-2 -2 1 2.7 1.8
-2 -2 1 5.2 1
-2 -2 1 5.5 3.2
1 2 -1 6 1.8
1 2 -1 7.6 1.6
1 2 -1 4.5 1.2
1 2 -1 7.3 2.1
1 2 -1 8.6 1.1
1 2 -1 10 1.4
1 2 -1 8.9 2.4
-1 -2 1 6.3 1.8
-1 -2 1 7 1.5
-1 -2 1 10.9 1.7
-1 -2 1 8.4 2.1
-1 -2 1 5.3 2
0 2 -1 374.76 12.2
0 2 -1 373.46 11.1
0 2 -1 383.06 11
0 2 -1 368.96 11.4
0 2 -1 368.66 10.8
0 2 -1 367.26 11.2
0 2 -1 381.56 12
0 -2 1 373.36 11.1
0 -2 1 366.46 10.8
0 -2 1 375.96 10.9
0 -2 1 365.86 11.6
0 -2 1 380.46 11.9
-1 2 -1 2132.29 56.89
-1 2 -1 2162.98 56.39
-1 2 -1 2077.89 56.19
-1 2 -1 2121.79 58.09
1 -2 1 2153.68 57.99
1 -2 1 2131.99 56.99
1 -2 1 2057.79 56.49
-2 2 -1 1428.86 39.1
-2 2 -1 1411.96 39
-2 2 -1 1442.36 42.6
-2 2 -1 1443.56 39.7
2 -2 1 1488.65 42.6
2 -2 1 1432.46 39.7
2 -2 1 1465.55 39.3
2 -2 1 1440.56 39.5
-3 2 -1 139.29 5.9
-3 2 -1 125.39 9.7
-3 2 -1 138.69 6
-3 2 -1 141.99 5.6
3 -2 1 139.79 6.2
3 -2 1 153.98 9.9
3 -2 1 133.59 5.5
3 -2 1 137.89 6
-4 2 -1 51.09 4.6
-4 2 -1 58.59 4.1
-4 2 -1 60.79 4.1
4 -2 1 60.79 9.1
4 -2 1 61.59 4.4
4 -2 1 54.39 4.2
4 -2 1 48.2 8.3
4 -2 1 62.79 3.9
4 -2 1 49.9 4.8
-5 2 -1 33.3 3.9
-5 2 -1 26.4 4.3
5 -2 1 36.3 4.5
5 -2 1 58.09 9.5
5 -2 1 42.5 8.4
-6 2 -1 25.3 4.6
-6 2 -1 30.9 3.8
6 -2 1 25.9 9.6
6 -2 1 36.2 9
-7 2 -1 -3 3.3
-7 2 -1 6 4.5
7 -2 1 20.7 11
7 -2 1 -3.5 11.7
-8 2 -1 39.6 7.1
-8 2 -1 36.1 5
8 -2 1 36.2 17.1
8 -2 1 31.1 14.2
-9 2 -1 20 6
-9 2 -1 22.2 8.7
9 -2 1 29.2 20.4
9 -2 1 31.6 20
-10 2 -1 1.9 10
10 -2 1 13 23.5
10 -2 1 -8.9 23.8
9 1 -1 43.3 25.3
9 1 -1 -18.5 23.1
-9 -1 1 -5.7 9.4
8 1 -1 25.5 17.6
8 1 -1 0 19.7
-8 -1 1 3.3 8.6
7 1 -1 -13.8 15.1
7 1 -1 6.8 13.8
-7 -1 1 5.4 6
-7 -1 1 4.6 3.6
6 1 -1 94.99 15.2
6 1 -1 69.09 6.3
6 1 -1 100.49 18.1
-6 -1 1 79.09 7.8
-6 -1 1 80.49 5.9
5 1 -1 1.5 2.2
5 1 -1 3.7 8.4
5 1 -1 -2 7.3
-5 -1 1 -3 3.4
-5 -1 1 -2.4 2.2
4 1 -1 113.39 11.8
4 1 -1 138.69 5.5
4 1 -1 133.19 13
-4 -1 1 147.09 7.9
-4 -1 1 135.19 5.8
3 1 -1 160.68 11.3
3 1 -1 177.18 7.9
3 1 -1 184.98 8
3 1 -1 198.18 6.5
3 1 -1 201.58 12.2
-3 -1 1 180.18 11.3
-3 -1 1 194.68 8.6
-3 -1 1 187.68 6.5
2 1 -1 311.47 9.3
2 1 -1 312.67 10.7
2 1 -1 299.37 13
2 1 -1 320.67 13.3
2 1 -1 314.57 10.5
-2 -1 1 320.67 10.7
-2 -1 1 311.27 10.7
-2 -1 1 316.77 9.4
-2 -1 1 313.37 13
1 1 -1 186.38 7.7
1 1 -1 189.48 8
1 1 -1 186.18 6.4
1 1 -1 183.48 5.7
1 1 -1 183.48 6.3
-1 -1 1 186.98 7.7
-1 -1 1 183.78 6.3
-1 -1 1 185.38 7.5
-1 -1 1 190.78 6.5
-1 -1 1 188.18 5.7
0 1 -1 1684.83 44.2
0 1 -1 1696.33 43.2
0 1 -1 1604.54 43
0 1 -1 1606.44 43.3
0 1 -1 1699.73 43
0 1 -1 1703.63 43.8
0 1 -1 1432.46 43.2
0 -1 1 1632.94 43.4
0 -1 1 1610.14 43
0 -1 1 1589.84 43
0 -1 1 1628.54 43.1
0 -1 1 1691.13 44.1
0 -1 1 1658.33 43.3
-1 1 -1 1407.96 37.6
-1 1 -1 1383.66 37.2
-1 1 -1 1493.75 39.1
-1 1 -1 1414.56 37.6
1 -1 1 1367.96 37.3
1 -1 1 1401.46 37.6
1 -1 1 1293.67 37.7
1 -1 1 1445.76 38.8
-2 1 -1 66.29 5.6
-2 1 -1 67.89 2.9
-2 1 -1 64.89 3.1
-2 1 -1 54.89 3.6
2 -1 1 63.49 2.8
2 -1 1 73.39 5.7
2 -1 1 58.49 3.1
2 -1 1 69.39 3.1
-3 1 -1 144.89 9.6
-3 1 -1 145.09 5.2
-3 1 -1 125.49 6
-3 1 -1 131.29 5.2
3 -1 1 137.09 5.1
3 -1 1 130.39 9.7
3 -1 1 129.29 8.5
3 -1 1 133.69 5.2
3 -1 1 129.29 6.2
3 -1 1 129.29 5.7
-4 1 -1 6.9 1.8
-4 1 -1 4.1 2.7
4 -1 1 12.3 5.6
4 -1 1 4.8 1.6
4 -1 1 8.5 3.1
4 -1 1 3.5 5.4
4 -1 1 6.1 2.6
-5 1 -1 491.15 16.8
-5 1 -1 558.04 19.2
5 -1 1 546.85 24.6
5 -1 1 583.54 26.5
5 -1 1 570.74 16.9
-6 1 -1 107.19 6.4
-6 1 -1 102.09 8
6 -1 1 117.79 17
6 -1 1 124.99 16.2
-7 1 -1 351.86 13.5
-7 1 -1 371.06 16.5
7 -1 1 373.96 29.5
7 -1 1 374.06 26
-8 1 -1 17 7.6
-8 1 -1 21.1 4.8
8 -1 1 26.8 15
8 -1 1 3.4 16.9
-9 1 -1 9.9 9
9 -1 1 48 20.6
9 -1 1 9 20.9
9 0 -1 3.3 20
9 0 -1 -2.1 21.3
-9 0 1 -1.7 8.8
8 0 -1 -17.3 18.2
8 0 -1 22.9 16.9
-8 0 1 5.6 4.8
-8 0 1 2.7 7.1
7 0 -1 15.6 13.1
7 0 -1 15.3 12.5
-7 0 1 12.8 5.3
-7 0 1 10.2 3.6
6 0 -1 111.49 15.2
6 0 -1 125.79 17.7
-6 0 1 97.09 8.2
-6 0 1 99.79 6.3
5 0 -1 268.47 18.5
5 0 -1 265.67 17.9
5 0 -1 247.58 9.3
-5 0 1 268.07 9.8
-5 0 1 270.87 11.7
4 0 -1 18.9 3.6
4 0 -1 22.1 6.6
4 0 -1 19.2 3.6
4 0 -1 21.4 2.7
4 0 -1 20.8 6.1
-4 0 1 15.2 5.9
-4 0 1 24.8 3.6
-4 0 1 19 2.9
3 0 -1 77.79 3.6
3 0 -1 72.59 4.3
3 0 -1 83.59 7.9
3 0 -1 73.09 4.7
3 0 -1 71.29 7.6
-3 0 1 76.69 4.5
-3 0 1 85.39 7.9
-3 0 1 77.39 3.7
-3 0 1 67.19 6.7
2 0 -1 40.7 2.2
2 0 -1 37.3 4.9
2 0 -1 35.3 4.5
2 0 -1 37.2 2.6
2 0 -1 40.7 2.9
-2 0 1 39 4.3
-2 0 1 30.8 4.5
-2 0 1 38.6 2.7
-2 0 1 33.9 2.1
1 0 -1 1644.14 44.6
1 0 -1 1624.74 43.1
1 0 -1 1583.74 42.8
1 0 -1 1627.54 45
-1 0 1 1703.23 45.1
-1 0 1 1621.24 44.6
-1 0 1 1597.34 43.1
-1 0 1 1596.34 42.8
-1 0 -1 1780.22 46.9
-1 0 -1 1646.74 45.2
-1 0 -1 1661.43 44.9
-1 0 -1 1623.04 44.6
1 0 1 1759.12 46.9
1 0 1 1695.13 44.9
1 0 1 1714.43 45.3
1 0 1 1654.33 44.6
-2 0 -1 217.28 6.3
-2 0 -1 215.08 7.9
-2 0 -1 210.08 7.5
-2 0 -1 204.68 10
2 0 1 211.58 7.5
2 0 1 207.88 8
2 0 1 213.98 6.3
2 0 1 212.58 10.1
-3 0 -1 2.5 2.1
-3 0 -1 -3.5 3.6
-3 0 -1 0.8 2
-3 0 -1 1.2 1
3 0 1 1.7 2.4
3 0 1 -2.2 3.6
3 0 1 1.7 2
3 0 1 -6.3 3.6
3 0 1 0.4 0.9
-4 0 -1 24.7 4.1
-4 0 -1 34.3 4.7
-4 0 -1 36.1 3
4 0 1 40 8.4
4 0 1 31.6 5.2
4 0 1 51.39 8
4 0 1 33.7 2.7
-5 0 -1 78.49 7.1
-5 0 -1 70.99 6.5
-5 0 -1 78.79 4.7
5 0 1 67.49 11.3
5 0 1 69.79 12.4
5 0 1 77.09 4.4
-6 0 -1 419.56 17.1
-6 0 -1 431.66 13.7
6 0 1 414.26 26.9
6 0 1 368.56 13.1
6 0 1 392.76 24.9
-7 0 -1 12.6 5.7
-7 0 -1 10.3 3.3
7 0 1 22.5 15.8
7 0 1 -4.5 12.3
-8 0 -1 19.4 7.5
8 0 1 21.2 19.3
8 0 1 15.8 17.8
-9 0 -1 -6.3 9.3
9 0 1 -24.7 22.8
9 0 1 -1.4 21.7
10 -1 -1 18.4 24.3
10 -1 -1 -1.6 24.9
-10 1 1 3.9 10.1
9 -1 -1 -8 18.2
9 -1 -1 11.6 19.1
-9 1 1 0.8 8
-9 1 1 -0.3 5.7
8 -1 -1 13 14.2
8 -1 -1 8.6 15.9
-8 1 1 17.5 6.7
-8 1 1 14 4.6
7 -1 -1 259.77 23.2
7 -1 -1 272.37 25
-7 1 1 260.77 11.5
-7 1 1 265.47 13.4
6 -1 -1 -6.8 8.5
6 -1 -1 6.3 8.8
-6 1 1 0.5 3.7
-6 1 1 7.9 2.8
5 -1 -1 10.5 6.2
5 -1 -1 9 6.6
5 -1 -1 6.8 2.5
-5 1 1 -0.4 3.2
-5 1 1 4.5 2.2
4 -1 -1 31.6 3
4 -1 -1 24.4 4.3
4 -1 -1 19 6.4
4 -1 -1 28 3.6
4 -1 -1 28.3 6.2
-4 1 1 28.2 3.7
-4 1 1 27.5 5.7
-4 1 1 32.1 3.3
3 -1 -1 92.89 7.6
3 -1 -1 93.49 4.2
3 -1 -1 90.69 4.5
3 -1 -1 88.29 8
-3 1 1 98.29 4.3
-3 1 1 92.19 8
-3 1 1 96.29 4.6
-3 1 1 92.29 7.2
2 -1 -1 108.29 4.2
2 -1 -1 101.99 4
2 -1 -1 101.99 6.3
2 -1 -1 103.59 6.5
2 -1 -1 108.29 4.1
-2 1 1 104.29 4.1
-2 1 1 108.39 6.8
-2 1 1 105.99 4.1
-2 1 1 102.29 6.3
-2 1 1 109.49 4
-2 1 1 105.29 4.2
1 -1 -1 726.33 19.8
1 -1 -1 722.73 21.2
1 -1 -1 716.13 21.5
1 -1 -1 762.92 20.1
-1 1 1 741.43 21.6
-1 1 1 707.03 21.2
-1 1 1 714.23 19.8
-1 1 1 732.83 20
0 -1 -1 1395.86 37.9
0 -1 -1 1484.15 38.6
0 -1 -1 1522.85 38.5
0 -1 -1 1370.16 37.2
0 1 1 1449.55 37.9
0 1 1 1403.96 38.4
0 1 1 1414.46 38.5
0 1 1 1347.57 37.2
0 1 1 1407.96 37.9
-1 -1 -1 345.07 11.2
-1 -1 -1 338.17 9.9
-1 -1 -1 343.27 12.1
-1 -1 -1 331.97 10.6
-1 -1 -1 332.87 10.7
1 1 1 330.97 10.8
1 1 1 348.87 11.2
1 1 1 324.07 10.7
1 1 1 343.27 9.9
1 1 1 339.67 12.3
-2 -1 -1 56.79 5.6
-2 -1 -1 51.99 3.8
-2 -1 -1 56.69 3.8
2 1 1 50.49 6.1
2 1 1 59.09 4
2 1 1 53.69 3.8
-3 -1 -1 324.57 15.8
-3 -1 -1 364.96 12.7
-3 -1 -1 351.46 12.6
3 1 1 327.97 12.8
3 1 1 338.17 16.4
3 1 1 343.47 12.4
-4 -1 -1 3.2 2.6
-4 -1 -1 1.7 3.3
4 1 1 0.4 5.1
4 1 1 4.2 5.9
-5 -1 -1 13.4 4.9
-5 -1 -1 12.3 3.9
5 1 1 25.8 8.7
5 1 1 12.1 8
-6 -1 -1 188.68 12.4
-6 -1 -1 165.18 11.2
6 1 1 172.78 19.5
6 1 1 184.98 21.6
-7 -1 -1 4.4 6.4
7 1 1 11.6 14.2
7 1 1 1 15.4
-8 -1 -1 19.7 8.9
8 1 1 15.6 20.9
8 1 1 2.8 18.4
-9 -1 -1 12.2 10.9
9 1 1 26 23.8
9 1 1 1.5 26.4
10 -2 -1 59.99 24.5
10 -2 -1 25.9 23.6
-10 2 1 28.2 10.3
9 -2 -1 -27.9 19
9 -2 -1 10.9 18.9
-9 2 1 -5.8 5.6
-9 2 1 3.6 7.4
8 -2 -1 -8.9 13.9
8 -2 -1 13.9 13.4
-8 2 1 -1 5.2
-8 2 1 7.9 4.5
7 -2 -1 61.39 13.4
7 -2 -1 57.79 13.5
-7 2 1 44.5 6.6
-7 2 1 52.79 6.4
6 -2 -1 -1.2 7.7
6 -2 -1 -6.7 7.7
-6 2 1 -3.4 2.6
-6 2 1 -4.4 3
5 -2 -1 8.5 6.6
5 -2 -1 -0.3 2.9
5 -2 -1 4.5 6.1
5 -2 -1 2.9 3.8
-5 2 1 0.9 6.2
-5 2 1 4.2 2.2
-5 2 1 1.5 2.4
4 -2 -1 4.2 1.9
4 -2 -1 7.6 2
4 -2 -1 6.5 4.4
4 -2 -1 1.2 5
-4 2 1 4.6 4.4
-4 2 1 6.6 2.1
-4 2 1 4.8 1.7
-4 2 1 5.6 1.7
-4 2 1 4 1.7
3 -2 -1 794.82 22.5
3 -2 -1 817.62 28
3 -2 -1 775.92 26.2
3 -2 -1 783.72 22.8
-3 2 1 781.92 26.4
-3 2 1 810.22 23
-3 2 1 809.42 22.5
-3 2 1 787.02 23.1
-3 2 1 811.52 23.1
-3 2 1 799.82 27.9
2 -2 -1 7381.06 201.28
2 -2 -1 7856.61 203.58
2 -2 -1 7650.53 201.98
2 -2 -1 7756.02 205.08
-2 2 1 7660.93 201.38
-2 2 1 7778.82 205.28
-2 2 1 7889.21 203.88
-2 2 1 7750.62 202.18
1 -2 -1 9949.8 256.87
1 -2 -1 9747.42 255.27
1 -2 -1 9930.11 255.77
-1 2 1 9510.65 255.97
-1 2 1 9872.81 255.17
-1 2 1 9999 255.87
-1 2 1 9479.15 256.77
0 -2 -1 304.97 8.6
0 -2 -1 300.67 9.5
0 -2 -1 284.47 8.9
0 -2 -1 288.97 10.2
0 -2 -1 296.37 10.5
0 2 1 289.47 9.4
0 2 1 288.67 10.5
0 2 1 281.67 10.4
0 2 1 284.27 9.1
-1 -2 -1 803.92 24.1
-1 -2 -1 775.82 23.3
-1 -2 -1 789.62 22.4
-1 -2 -1 780.72 22.9
1 2 1 795.82 23.4
1 2 1 817.62 24.2
1 2 1 786.02 23
1 2 1 794.82 22.4
1 2 1 778.32 25.4
-2 -2 -1 6.4 3.7
-2 -2 -1 10.7 1.7
-2 -2 -1 9.1 2.6
-2 -2 -1 6.7 2.3
2 2 1 9.9 2.6
2 2 1 10.4 1.7
2 2 1 10.1 2.9
2 2 1 4.2 2.8
2 2 1 8.6 3.9
-3 -2 -1 0.9 2.1
-3 -2 -1 2.4 2.7
3 2 1 -1.7 4.2
-4 -2 -1 84.19 6.7
-4 -2 -1 93.19 7.2
4 2 1 87.59 11.8
4 2 1 62.59 10.9
-5 -2 -1 19.1 4.8
-5 -2 -1 17.3 5.8
5 2 1 29.1 9.7
5 2 1 13.7 8.8
-6 -2 -1 57.69 9
-6 -2 -1 58.69 10.1
6 2 1 37.7 13.4
6 2 1 59.19 14.7
-7 -2 -1 -1.1 7.2
7 2 1 -6 15.8
7 2 1 11.7 16.9
-8 -2 -1 4.5 9
8 2 1 -31 22.4
8 2 1 -21.1 20.4
-9 -2 -1 15.3 12.7
9 2 1 8.9 29.3
9 2 1 8.6 26.8
10 -3 -1 20.2 22.1
10 -3 -1 31.9 23.8
-10 3 1 27.1 9.3
-10 3 1 35.2 7.8
9 -3 -1 48.1 18.3
9 -3 -1 22.5 16.7
-9 3 1 13.4 6.2
-9 3 1 33.5 7.9
8 -3 -1 7.7 13.2
8 -3 -1 3.6 13.9
-8 3 1 12.1 5.1
-8 3 1 3.7 4.2
7 -3 -1 2.9 9.9
7 -3 -1 6.3 9.9
-7 3 1 5 3.9
-7 3 1 3.7 3.7
6 -3 -1 -7.7 7.5
6 -3 -1 13.3 8.1
-6 3 1 1.3 3
-6 3 1 2.2 3.2
-6 3 1 2.8 2.5
-6 3 1 1.6 2.7
5 -3 -1 38.9 4
5 -3 -1 43.1 8.7
5 -3 -1 52.09 8.5
-5 3 1 42.4 4.1
-5 3 1 41.9 4.7
-5 3 1 35.2 4.2
-5 3 1 40.3 4.3
-5 3 1 41.5 7.6
4 -3 -1 988.9 35.2
4 -3 -1 1019.6 32.8
-4 3 1 937.71 32.8
-4 3 1 980.2 29.2
-4 3 1 995.8 29.2
-4 3 1 1017.3 29
-4 3 1 1013.5 28
3 -3 -1 -2.5 3
3 -3 -1 0.9 1.3
3 -3 -1 3.2 3.3
-3 3 1 6 3.6
-3 3 1 2.6 3.8
-3 3 1 1.3 1.8
-3 3 1 0.2 1.8
-3 3 1 -0.5 1.4
2 -3 -1 61.79 4.3
2 -3 -1 60.09 3.4
2 -3 -1 65.89 6.1
2 -3 -1 77.39 5.8
-2 3 1 58.49 3.5
-2 3 1 56.09 4
-2 3 1 60.09 5.5
-2 3 1 62.89 4.4
-2 3 1 58.99 6
1 -3 -1 1.4 2.3
1 -3 -1 0.2 2.6
1 -3 -1 0 1.4
1 -3 -1 0.7 1.2
-1 3 1 3.5 2.9
-1 3 1 1.5 1.7
-1 3 1 -0.7 0.9
-1 3 1 -1 1.3
-1 3 1 0.2 2.5
0 -3 -1 20.4 2
0 -3 -1 23 3.7
0 -3 -1 22.3 3.3
0 -3 -1 25 2.3
0 -3 -1 24.2 2.9
0 3 1 17.4 2.6
0 3 1 21.2 1.9
0 3 1 14 2.7
0 3 1 22.5 2.6
0 3 1 20.1 3.3
0 3 1 20.9 3.3
-1 -3 -1 47 5.1
-1 -3 -1 48.7 3.9
-1 -3 -1 46.7 4.4
-1 -3 -1 44.5 3.6
1 3 1 53.49 4.7
1 3 1 48.1 3.5
1 3 1 51.99 6.4
1 3 1 49.3 3.9
1 3 1 46.8 5.3
-2 -3 -1 1.4 3.1
-2 -3 -1 -3.2 2
-2 -3 -1 -0.8 2.2
-2 -3 -1 -1.5 2.5
2 3 1 -3.1 3
2 3 1 4.9 5.2
2 3 1 0.5 1.8
2 3 1 8.1 4.1
-3 -3 -1 16.2 3.9
-3 -3 -1 18 3.6
3 3 1 11.5 5.9
-4 -3 -1 15 4.9
-4 -3 -1 8.7 4.2
4 3 1 11.4 7.6
4 3 1 10 7.6
-5 -3 -1 156.18 11.9
-5 -3 -1 148.79 10.7
5 3 1 131.59 18.2
5 3 1 151.08 17.4
-6 -3 -1 4.7 8.1
-6 -3 -1 6 7
6 3 1 23.8 14.4
6 3 1 18.2 15.4
-7 -3 -1 12.9 9.8
-7 -3 -1 -2.9 8.3
7 3 1 10.3 18.4
7 3 1 -20.2 18.9
-8 -3 -1 18.8 11
8 3 1 -13.7 22.8
8 3 1 1.3 25.5
10 -4 -1 28.9 24.2
-10 4 1 29.6 8.1
9 -4 -1 59.39 17.4
9 -4 -1 104.89 21.5
-9 4 1 69.89 9.2
8 -4 -1 24.1 14.9
8 -4 -1 23.4 12.9
-8 4 1 31.2 5.5
-8 4 1 31.4 5.5
7 -4 -1 30.2 10.2
7 -4 -1 22.5 10.9
-7 4 1 31.1 5.2
-7 4 1 40.3 5
-7 4 1 31.5 4.8
6 -4 -1 41.5 5.3
6 -4 -1 35.3 8.5
6 -4 -1 49.2 10.7
-6 4 1 34.3 5.3
-6 4 1 32.7 4.2
-6 4 1 42.2 5.6
5 -4 -1 57.29 9.7
-5 4 1 50.59 4.9
-5 4 1 51.49 8.1
-5 4 1 50.89 5.2
4 -4 -1 1143.69 39.4
-4 4 1 1153.68 34
-4 4 1 1094.29 34
-4 4 1 1161.78 33.2
3 -4 -1 491.05 20.2
-3 4 1 466.95 17
-3 4 1 508.75 16.8
-3 4 1 472.75 18.1
-3 4 1 499.85 15.7
2 -4 -1 1.3 3.4
2 -4 -1 2.4 1.8
2 -4 -1 1.5 2.5
2 -4 -1 3.4 3.4
-2 4 1 1 1.8
-2 4 1 3.4 3.7
-2 4 1 -2.7 1.3
-2 4 1 -3.5 3.6
-2 4 1 0.6 2.3
1 -4 -1 19.5 3.5
1 -4 -1 10.9 2.3
1 -4 -1 16.1 2.2
1 -4 -1 9.8 3.5
-1 4 1 11.8 3
-1 4 1 19.9 4.1
-1 4 1 12.8 1.9
-1 4 1 12.5 2.5
-1 4 1 14 3.8
0 -4 -1 250.37 8.7
0 -4 -1 242.18 10.1
0 -4 -1 230.88 9.8
0 -4 -1 238.88 11.1
0 -4 -1 248.08 8.6
0 4 1 210.98 11.2
0 4 1 248.38 10.7
0 4 1 240.88 10.2
0 4 1 251.77 9.7
0 4 1 232.68 8.1
0 4 1 239.78 8.1
0 4 1 249.08 8.8
-1 -4 -1 -1.6 2.7
-1 -4 -1 -1.6 2.5
-1 -4 -1 -0.7 2.3
-1 -4 -1 1.1 2.9
1 4 1 0.6 1.2
1 4 1 1.9 3.1
1 4 1 1.2 3.9
1 4 1 -0.7 2.1
1 4 1 3.2 3.9
1 4 1 0.2 2.8
1 4 1 -0.6 1.5
-2 -4 -1 55.49 5.8
-2 -4 -1 59.99 5.8
-2 -4 -1 51.69 7.2
-2 -4 -1 54.29 5.9
2 4 1 64.99 5.2
2 4 1 54.29 6
2 4 1 51.19 8.2
-3 -4 -1 7.8 4.5
-3 -4 -1 10.6 4.3
-3 -4 -1 13.7 3.8
3 4 1 14.5 3.4
3 4 1 11.4 4
3 4 1 9.9 7.4
-4 -4 -1 4.7 4.5
-4 -4 -1 -6.2 4.9
4 4 1 12.6 9.4
4 4 1 10.4 9.5
-5 -4 -1 18.1 7.2
-5 -4 -1 28 6.6
5 4 1 9 12.5
5 4 1 21.3 12.3
-6 -4 -1 2.2 7.4
-6 -4 -1 17.5 8.9
6 4 1 11.5 16.7
6 4 1 3 15.4
-7 -4 -1 13.4 10.7
-7 -4 -1 12 9.5
7 4 1 5.5 19.3
7 4 1 16.8 22.9
-8 -4 -1 22.9 12.5
8 4 1 -1.6 26.4
8 4 1 -11.5 29.4
10 -5 -1 11.9 21.6
-10 5 1 0.3 7.8
9 -5 -1 22.3 17.7
-9 5 1 14.6 6.3
8 -5 -1 -11.7 12.8
-8 5 1 2.5 5
-8 5 1 -0.4 4.2
-8 5 1 2.6 3.9
7 -5 -1 122.59 16.9
-7 5 1 109.59 8.5
-7 5 1 110.59 8.5
6 -5 -1 234.48 18.7
-6 5 1 215.78 11
-6 5 1 232.88 10.9
5 -5 -1 95.29 12.8
-5 5 1 91.89 6.9
-5 5 1 90.39 6.6
4 -5 -1 595.54 25.6
-4 5 1 609.94 21
-4 5 1 622.44 19.9
3 -5 -1 398.96 18.4
-3 5 1 406.66 15.3
-3 5 1 399.46 13.8
2 -5 -1 13.2 4.3
2 -5 -1 12.3 5.1
-2 5 1 10 2.2
-2 5 1 15.5 3.3
-2 5 1 8.5 4.5
1 -5 -1 33.2 4.4
1 -5 -1 29.8 5.4
1 -5 -1 31.3 5.4
-1 5 1 31.6 4.5
-1 5 1 33 3.4
-1 5 1 18.4 4.7
0 -5 -1 84.09 5.2
0 -5 -1 86.69 7.9
0 -5 -1 92.69 5.8
0 -5 -1 86.49 6.4
0 5 1 88.49 4.7
0 5 1 82.29 4.9
0 5 1 90.19 5.6
0 5 1 92.39 6.2
-1 -5 -1 38.8 6.8
-1 -5 -1 38.7 4.8
-1 -5 -1 42.5 5.9
1 5 1 29.6 3.8
1 5 1 43.6 6.2
1 5 1 34.7 7.1
1 5 1 43.5 4.8
1 5 1 43 3.5
-2 -5 -1 3.9 3.8
-2 -5 -1 1 4.3
-2 -5 -1 1.2 5.2
2 5 1 -5.4 6
2 5 1 -0.5 3.3
-3 -5 -1 131.19 10.1
-3 -5 -1 127.89 9.3
3 5 1 124.49 8.3
3 5 1 144.79 16.9
-4 -5 -1 237.88 14.4
-4 -5 -1 247.98 13.7
4 5 1 237.58 24.8
4 5 1 230.98 22
-5 -5 -1 12 8.8
-5 -5 -1 22.5 7.4
5 5 1 25.3 16.3
5 5 1 24.2 15.5
-6 -5 -1 23.2 9.8
-6 -5 -1 19.5 11.8
6 5 1 54.79 22.8
6 5 1 21.7 20.5
-7 -5 -1 6.7 12.1
-7 -5 -1 13.5 11.4
7 5 1 1.4 22.6
7 5 1 12.2 26.6
10 -6 -1 34.4 22.7
-10 6 1 -4.4 7.3
9 -6 -1 -23.2 16.8
-9 6 1 12.2 6.9
8 -6 -1 1.9 14.7
-8 6 1 3.7 5
-8 6 1 0.4 5.1
7 -6 -1 23.4 13.5
-7 6 1 17.7 4.7
-7 6 1 22.9 5.3
6 -6 -1 230.18 19.6
-6 6 1 217.58 11.1
-6 6 1 227.18 12.1
5 -6 -1 9.5 7.2
-5 6 1 -1.6 3
-5 6 1 5.2 3.6
4 -6 -1 340.77 19.3
-4 6 1 357.36 13.5
-4 6 1 361.46 15.2
3 -6 -1 472.65 21.3
3 -6 -1 450.75 17.4
-3 6 1 454.45 17.4
-3 6 1 406.96 18.9
-3 6 1 447.26 15.4
2 -6 -1 43.6 6.6
2 -6 -1 53.99 8.8
-2 6 1 30 7.3
-2 6 1 52.79 4.7
-2 6 1 52.89 5.7
1 -6 -1 10.8 4.2
1 -6 -1 12.9 5.3
-1 6 1 12.3 3.3
-1 6 1 15 3.1
0 -6 -1 65.59 7.7
0 -6 -1 61.49 6.9
0 -6 -1 61.89 5.5
0 -6 -1 76.69 9.2
0 6 1 69.79 6.6
0 6 1 75.49 6.3
0 6 1 68.29 5
0 6 1 66.99 5.8
-1 -6 -1 144.99 8.2
-1 -6 -1 145.79 10.3
-1 -6 -1 140.69 11.6
1 6 1 155.18 14.3
1 6 1 133.19 7
1 6 1 161.18 8.8
1 6 1 136.69 6.7
-2 -6 -1 8.8 4.7
-2 -6 -1 2.5 5.2
-2 -6 -1 1.7 6.4
2 6 1 2.7 3.9
2 6 1 10.6 8
-3 -6 -1 13.5 5.6
-3 -6 -1 16.5 6.5
3 6 1 14.3 11.3
3 6 1 4 5
-4 -6 -1 44.6 8.3
-4 -6 -1 49.2 9.6
4 6 1 51.09 16
4 6 1 17.5 16.4
4 6 1 27.6 6
-5 -6 -1 2.6 9.1
-5 -6 -1 13.5 9.5
5 6 1 19 18.4
5 6 1 8.2 17.2
-6 -6 -1 13.6 12
-6 -6 -1 0.8 10.1
6 6 1 2.9 24.6
6 6 1 14.1 21.8
9 -7 -1 27.3 17.9
8 -7 -1 95.09 18.7
-8 7 1 91.89 10.7
-8 7 1 95.39 10.6
7 -7 -1 4.3 12.8
-7 7 1 6.7 5.2
-7 7 1 20 5.5
6 -7 -1 22.8 9.6
-6 7 1 19.1 4.6
-6 7 1 22 5.2
5 -7 -1 23.9 9
-5 7 1 42.3 6.2
-5 7 1 35.3 5.1
4 -7 -1 230.38 17.8
-4 7 1 226.78 12.5
-4 7 1 243.08 10.9
3 -7 -1 125.29 13.3
3 -7 -1 122.99 9.5
-3 7 1 124.79 9.3
-3 7 1 125.99 7.6
2 -7 -1 43.4 6.3
2 -7 -1 30.6 7.4
-2 7 1 35.6 4.4
-2 7 1 50.19 7
1 -7 -1 1.9 5.7
1 -7 -1 16.8 5.5
-1 7 1 16.3 4.3
-1 7 1 16.8 3.6
0 -7 -1 4.5 6.2
0 -7 -1 13 4.1
0 -7 -1 18.4 6
0 7 1 20.6 7
0 7 1 14.3 4.4
0 7 1 19 3.4
-1 -7 -1 38 6.8
-1 -7 -1 47.6 7.6
-1 -7 -1 33.3 7.4
1 7 1 46 6.2
1 7 1 38.7 4.3
1 7 1 41.9 10.4
-2 -7 -1 -2.9 8.1
-2 -7 -1 8 6.5
-2 -7 -1 4.1 5.5
2 7 1 -1 4.9
2 7 1 21.8 11.4
-3 -7 -1 22.6 9.3
-3 -7 -1 17.3 6.9
3 7 1 21.6 15.2
3 7 1 5.9 6
-4 -7 -1 14.6 8.5
-4 -7 -1 12.5 9.1
4 7 1 4.6 6.6
4 7 1 25.2 19
4 7 1 26.6 17
-5 -7 -1 11.5 9.3
-5 -7 -1 4.2 11.1
5 7 1 12.1 20.6
5 7 1 -30.3 21.7
-6 -7 -1 6.9 11.5
-6 -7 -1 21.8 13.6
6 7 1 35.7 29.5
6 7 1 5.5 26.5
9 -8 -1 11.6 18.6
-9 8 1 21.3 7.9
-9 8 1 17.9 8.3
8 -8 -1 -4.7 15.3
-8 8 1 -6.9 6.1
-8 8 1 7.7 7.3
7 -8 -1 18.6 14.2
-7 8 1 4.8 6.6
-7 8 1 -3.9 5.4
6 -8 -1 4.5 11.2
-6 8 1 6.1 5.3
-6 8 1 -8.9 5.3
5 -8 -1 81.09 13.9
-5 8 1 116.49 10.6
-5 8 1 111.29 9.4
4 -8 -1 13.4 7.9
-4 8 1 17.3 4.2
-4 8 1 16 5.3
3 -8 -1 164.18 15.9
3 -8 -1 166.58 10.8
-3 8 1 163.48 9.4
-3 8 1 140.59 11.4
2 -8 -1 21.6 7.5
2 -8 -1 17.5 5.9
-2 8 1 14.9 4.8
-2 8 1 19.9 4.4
1 -8 -1 29.6 6.5
1 -8 -1 21 7.6
-1 8 1 24.8 4.5
-1 8 1 19.5 5.9
0 -8 -1 19.6 6.7
0 -8 -1 9.1 4.8
0 -8 -1 15.7 7.7
0 8 1 18.1 4
0 8 1 7.3 5.2
-1 -8 -1 204.78 17.5
-1 -8 -1 180.08 11
-1 -8 -1 188.58 13.8
1 8 1 192.08 12.9
1 8 1 178.18 9.5
1 8 1 213.78 24
-2 -8 -1 46.4 7.7
-2 -8 -1 41.8 11.1
-2 -8 -1 61.39 10.9
2 8 1 35.6 16.3
2 8 1 52.59 7.7
-3 -8 -1 17.6 9.6
-3 -8 -1 -3.1 8.1
3 8 1 -0.3 7.2
3 8 1 12 19.1
-4 -8 -1 91.39 13.7
-4 -8 -1 96.19 17
4 8 1 76.09 26.5
4 8 1 101.69 23.9
-5 -8 -1 22.4 10.8
-5 -8 -1 4.5 13.9
5 8 1 35.2 26.3
5 8 1 23.2 29.5
8 -9 -1 3.1 16
-8 9 1 -6.6 7.3
-8 9 1 11.4 8
7 -9 -1 -9 13.4
-7 9 1 7.8 7.9
-7 9 1 1.7 6.4
6 -9 -1 18.2 13.8
-6 9 1 33.9 6.1
-6 9 1 37.2 8
5 -9 -1 76.89 15.1
-5 9 1 119.29 13.7
-5 9 1 122.29 10.7
4 -9 -1 -2.5 10.3
-4 9 1 17.2 6.7
-4 9 1 12.8 5.9
3 -9 -1 20.1 9.4
-3 9 1 38 7.8
-3 9 1 55.99 8.2
2 -9 -1 95.19 10.6
2 -9 -1 99.69 16
-2 9 1 75.69 10.7
-2 9 1 86.19 8.6
1 -9 -1 45.4 11.5
-1 9 1 63.09 8.9
-1 9 1 71.09 8.6
0 -9 -1 2.2 5.7
0 -9 -1 4.8 9.6
0 -9 -1 19.8 8.2
0 9 1 2.3 4.8
0 9 1 3.9 6.5
-1 -9 -1 4 6.6
-1 -9 -1 -2.6 10.5
-1 -9 -1 11.6 8.5
1 9 1 20.5 7.8
1 9 1 12.2 15.8
1 9 1 9 4.7
-2 -9 -1 2.2 7.6
-2 -9 -1 11.5 12.9
-2 -9 -1 -2.2 8.9
2 9 1 -19.2 18.7
2 9 1 -5.1 8.3
-3 -9 -1 2.3 11
-3 -9 -1 7.9 9.2
3 9 1 -2.7 23.1
3 9 1 -9.8 8.7
-4 -9 -1 19.5 10.5
-4 -9 -1 30.6 13.6
4 9 1 -17.1 29.8
4 9 1 -35.1 27.2
8 -10 -1 -16.2 18
-8 10 1 -14.1 8.4
-8 10 1 7.5 9.5
7 -10 -1 19.1 16.2
-7 10 1 17.5 9.2
-7 10 1 9 7.3
6 -10 -1 27.9 15.2
-6 10 1 65.69 10.7
-6 10 1 80.59 12.1
5 -10 -1 3.3 12.5
-5 10 1 17.5 8.8
-5 10 1 15.2 6.7
-4 10 1 85.29 12
-4 10 1 84.69 9.4
3 -10 -1 8 10.9
3 -10 -1 19.5 7.9
-3 10 1 14.2 8.6
-3 10 1 16.6 6.6
2 -10 -1 17.2 7.8
2 -10 -1 -4.5 10.1
-2 10 1 2.8 8.8
-2 10 1 -4 6.2
1 -10 -1 89.79 15
1 -10 -1 58.39 13.7
-1 10 1 93.79 14
-1 10 1 73.89 10.8
0 -10 -1 6 9.7
0 -10 -1 -15 11.2
0 10 1 -32.2 16.3
0 10 1 2.8 5.6
0 10 1 2.1 14.9
0 10 1 17.8 9.1
-1 -10 -1 3.9 7.8
-1 -10 -1 23.4 13.8
-1 -10 -1 27.1 10.5
1 10 1 17.2 9.8
1 10 1 37.1 19.7
-2 -10 -1 0 9.2
-2 -10 -1 2.9 11.4
-2 -10 -1 -18.2 15.1
2 10 1 -8.8 10.9
2 10 1 24.9 23.7
-3 -10 -1 -9.3 10.7
-3 -10 -1 9.7 12.6
3 10 1 28.8 29
3 10 1 51.59 31.5
7 -11 -1 16 18.4
-7 11 1 18.4 10.4
-7 11 1 10.1 9.2
6 -11 -1 -21.4 15.9
-6 11 1 21.6 10.4
-6 11 1 25.7 8.7
5 -11 -1 23.2 14.7
-5 11 1 0.6 9.4
-5 11 1 -13.3 8
4 -11 -1 -7.9 12.9
-4 11 1 -0.1 9.2
-4 11 1 2.5 7.4
3 -11 -1 83.79 14.3
3 -11 -1 46 13.9
-3 11 1 43.8 10.3
-3 11 1 50.69 8.9
2 -11 -1 32.9 12
2 -11 -1 43.3 13.9
-2 11 1 41.5 11.1
-2 11 1 29.7 8
1 -11 -1 26.9 10.7
1 -11 -1 3.7 14
-1 11 1 16.8 7.8
-1 11 1 23.9 10.3
0 -11 -1 2.5 11.2
0 -11 -1 -11.3 13.9
0 11 1 23.2 11
0 11 1 -8 20.2
-1 -11 -1 15.4 12
-1 -11 -1 -0.6 16.4
1 11 1 -9.8 25.6
1 11 1 -12.9 10.9
4 -12 -1 -0.9 15.6
-4 12 1 2.7 9.4
-4 12 1 6.9 11.7
3 -12 -1 -1.1 15.5
-3 12 1 -0.5 11.3
2 -12 -1 7.6 13.2
2 -12 -1 -15.9 16.3
-2 12 1 34.2 9.3
-2 12 1 5.1 11.7
-1 12 -2 25.3 10.4
-1 12 -2 -33.8 18.7
-1 12 -2 -0.4 12.8
1 -12 2 29.8 16.6
-2 12 -2 16.3 10.2
-2 12 -2 -15.5 13
2 -12 2 22.6 16.2
-3 12 -2 9.8 9.8
-3 12 -2 17.9 13.7
3 -12 2 -8.5 15
-4 12 -2 37.6 14.8
-4 12 -2 25.4 9.7
4 -12 2 3.9 15.5
-5 12 -2 12.8 9.5
-5 12 -2 -25.2 13.9
5 -12 2 -11.9 15.3
2 11 -2 -3 24.4
2 11 -2 33.8 24.5
2 11 -2 -39.2 37.9
-2 -11 2 -0.1 12.1
1 11 -2 17.1 10.8
1 11 -2 9.2 19.9
1 11 -2 4.2 13.4
1 11 -2 35 36.8
-1 -11 2 16.3 11
-1 -11 2 39.4 16.1
0 11 -2 0.2 17.5
0 11 -2 2.8 8.3
0 11 -2 22.4 10.3
0 11 -2 34.1 28.1
0 -11 2 -8.4 13.3
0 -11 2 9.5 9.6
-1 11 -2 1.3 10.2
-1 11 -2 8.9 7.6
1 -11 2 -3.5 13.2
1 -11 2 11.1 8.8
-2 11 -2 -2.6 7.3
-2 11 -2 0.9 11
2 -11 2 -3.5 12.2
-3 11 -2 27.2 8.6
-3 11 -2 5.9 11.8
3 -11 2 26.1 12.7
-4 11 -2 -13.5 8.2
-4 11 -2 10.5 11.5
4 -11 2 -6 12.4
-5 11 -2 -0.4 7.6
-5 11 -2 -5.4 10.7
5 -11 2 -10.3 14.4
-6 11 -2 -0.5 10.1
-6 11 -2 9.3 8.5
6 -11 2 -7.8 15.8
-7 11 -2 15.8 9.7
-7 11 -2 3.2 10.2
7 -11 2 -20.1 17.4
3 10 -2 22.6 34.2
3 10 -2 -8.5 24.6
3 10 -2 31 22.7
-3 -10 2 17.1 11.7
-3 -10 2 10.5 11.8
2 10 -2 26.1 9.7
2 10 -2 22.2 31.4
2 10 -2 58.69 23.6
2 10 -2 44.8 20.5
-2 -10 2 47.2 14.8
-2 -10 2 36 11
-2 -10 2 31 10.2
1 10 -2 34.2 7
1 10 -2 36.7 25.7
1 10 -2 32.4 9.3
1 10 -2 60.89 18
1 10 -2 29.6 17.3
-1 -10 2 35 8.5
-1 -10 2 33.6 9.9
-1 -10 2 22.5 13.2
0 10 -2 20.5 6.6
0 10 -2 13.8 14
0 10 -2 38.7 14.8
0 10 -2 18.1 8.5
0 -10 2 15.9 8.1
0 -10 2 2.1 11.1
0 -10 2 5.4 7
-1 10 -2 17.2 6.7
-1 10 -2 9.7 9.2
1 -10 2 18.9 6.9
1 -10 2 25.7 11.4
-2 10 -2 19.8 8.9
-2 10 -2 9.2 6.7
2 -10 2 15.3 10.6
-3 10 -2 -8.9 8.4
-3 10 -2 8.4 6.2
3 -10 2 1.2 10.5
-4 10 -2 13.1 8.4
-4 10 -2 3.4 7.3
4 -10 2 1.4 11.1
-5 10 -2 25.5 8.8
-5 10 -2 26.5 7.2
5 -10 2 23.1 12.8
-6 10 -2 45.1 8.5
-6 10 -2 24.6 8.4
6 -10 2 49.9 15.3
-7 10 -2 35.9 8.4
-7 10 -2 17.2 9.1
7 -10 2 -17.5 15.6
-8 10 -2 -3.1 7.9
-8 10 -2 2.6 9.1
8 -10 2 -12.8 18.1
4 9 -2 21.7 30.9
4 9 -2 -8.8 23.6
4 9 -2 38.4 24.1
-4 -9 2 1.6 11.7
3 9 -2 36.4 28.7
3 9 -2 38.7 19.4
3 9 -2 8.1 8
3 9 -2 6.9 19.5
-3 -9 2 8.5 8.9
-3 -9 2 12.4 10
2 9 -2 92.19 10.1
2 9 -2 82.49 18.8
2 9 -2 151.88 21.6
2 9 -2 102.59 26.8
2 9 -2 107.99 13.1
-2 -9 2 89.39 13.7
-2 -9 2 120.69 20.6
-2 -9 2 98.29 11.7
1 9 -2 67.39 7.4
1 9 -2 96.09 12.5
1 9 -2 89.69 16.7
1 9 -2 67.29 20.2
1 9 -2 86.59 17.5
-1 -9 2 56.89 9.7
-1 -9 2 71.29 11.3
-1 -9 2 50.29 12.6
0 9 -2 7.2 4.9
0 9 -2 -5.1 11.1
0 9 -2 -11 10.9
0 9 -2 4.1 6.9
0 -9 2 6.1 8.8
0 -9 2 10.7 6.3
0 -9 2 1.2 5.8
-1 9 -2 37.7 8.2
-1 9 -2 36.6 6.1
1 -9 2 51.89 8.7
1 -9 2 23.9 8.4
-2 9 -2 -2.5 4.8
-2 9 -2 6 6.9
2 -9 2 2.5 7.8
-3 9 -2 13.7 7.4
-3 9 -2 17.5 5.1
3 -9 2 2.6 8.1
-4 9 -2 8.5 5.9
-4 9 -2 7.4 7.8
4 -9 2 -10.5 9
-5 9 -2 8.7 5.3
-5 9 -2 8.7 6.9
5 -9 2 2.8 11
-6 9 -2 3 5.9
-6 9 -2 3.3 6.3
6 -9 2 10.5 12.4
-7 9 -2 5 7.1
-7 9 -2 19 6.4
7 -9 2 0 13.7
-8 9 -2 -6.5 8.1
-8 9 -2 -9.2 6.7
8 -9 2 -4.6 16.3
5 8 -2 7.2 23.2
5 8 -2 32.1 27
-5 -8 2 -5.3 9.7
-5 -8 2 -14.6 11.3
4 8 -2 29.8 25.2
4 8 -2 6.3 19.9
-4 -8 2 1.7 10.2
-4 -8 2 5.7 8.8
3 8 -2 21.4 5.1
3 8 -2 25.5 17
3 8 -2 13.4 6.7
3 8 -2 41.7 22
-3 -8 2 22 7.7
-3 -8 2 27.2 9.5
2 8 -2 -1.9 12.3
2 8 -2 14.7 13
2 8 -2 0.3 5.8
2 8 -2 4 4.9
2 8 -2 14.9 16.9
-2 -8 2 -0.8 9
-2 -8 2 -6.4 5.7
-2 -8 2 -0.7 6.7
1 8 -2 5.4 10.2
1 8 -2 12.1 10.5
1 8 -2 6.3 5.6
1 8 -2 8.4 4.5
-1 -8 2 9 7.9
-1 -8 2 13.5 5.7
-1 -8 2 4.4 5.8
0 8 -2 30.3 4.8
0 8 -2 34.6 9.4
0 8 -2 29 6.4
0 -8 2 32.5 5.4
0 -8 2 23.1 7.5
0 -8 2 25 6
-1 8 -2 6.5 3.9
-1 8 -2 4.8 5.1
1 -8 2 8.6 4.7
1 -8 2 8 6.8
-2 8 -2 17.8 5.3
-2 8 -2 19.8 4.4
2 -8 2 16.7 6.7
2 -8 2 10.5 6.8
-3 8 -2 20.8 5.5
-3 8 -2 34.2 4.9
3 -8 2 28.5 7
3 -8 2 31 8.3
-4 8 -2 89.59 9.7
-4 8 -2 72.69 7.9
4 -8 2 60.09 8.5
4 -8 2 48.6 9.6
-5 8 -2 103.39 9.5
-5 8 -2 102.49 10.6
5 -8 2 112.99 16
5 -8 2 94.99 12.4
-6 8 -2 -0.7 4.9
-6 8 -2 -1.6 5.5
6 -8 2 -1 7.3
6 -8 2 10.2 11.2
-7 8 -2 5.2 5.2
-7 8 -2 11.2 7.2
7 -8 2 16.4 12.8
-8 8 -2 4.1 6
-8 8 -2 5.5 7.1
8 -8 2 -8 14.9
-9 8 -2 9.5 8.8
-9 8 -2 -12.4 6.8
9 -8 2 -32.4 18.4
6 7 -2 -18.2 24.2
6 7 -2 -0.2 26.5
-6 -7 2 0.7 11.8
-6 -7 2 2.3 10.2
5 7 -2 13.4 21.5
5 7 -2 -0.5 20.3
-5 -7 2 -2.1 8.3
-5 -7 2 -3.6 9.5
4 7 -2 96.49 10.2
4 7 -2 123.29 22.1
4 7 -2 124.99 24
-4 -7 2 130.69 14.8
-4 -7 2 124.39 12
3 7 -2 38.2 13.1
3 7 -2 43.1 16.2
3 7 -2 20.6 5.1
3 7 -2 23.4 5.8
-3 -7 2 34.7 7
-3 -7 2 41.7 8.4
2 7 -2 67.99 15.1
2 7 -2 60.49 7.4
2 7 -2 47.3 11.7
2 7 -2 64.79 9.2
-2 -7 2 67.19 9.1
-2 -7 2 66.19 9.1
-2 -7 2 68.89 7.8
1 7 -2 -4.5 3.6
1 7 -2 -13.6 7.6
1 7 -2 3 4.4
1 7 -2 3.4 7.6
-1 -7 2 1.7 4.4
-1 -7 2 0.9 6
-1 -7 2 -4.6 4.8
0 7 -2 6.7 4.4
0 7 -2 5.6 6.6
0 7 -2 8 3.5
0 -7 2 -1.2 3.8
0 -7 2 1.6 5.5
0 -7 2 4.9 4
-1 7 -2 16.9 3.8
-1 7 -2 15 6.6
-1 7 -2 14.3 4.2
-1 7 -2 17.9 3.7
1 -7 2 18.6 4.2
1 -7 2 17.1 5.3
1 -7 2 17.5 5.6
-2 7 -2 23 4
-2 7 -2 17.1 4.4
2 -7 2 23.9 5.3
2 -7 2 38 6.7
-3 7 -2 19 4.1
-3 7 -2 12.5 4.3
3 -7 2 6.6 6.3
3 -7 2 11.9 4.7
-4 7 -2 63.99 6.5
-4 7 -2 73.39 8.3
4 -7 2 75.59 8.7
4 -7 2 81.39 13.1
-5 7 -2 117.59 8.3
-5 7 -2 103.29 9.4
5 -7 2 114.79 10.6
5 -7 2 114.69 14.8
-6 7 -2 18.3 4.7
-6 7 -2 20.5 5.3
6 -7 2 7.5 9.5
6 -7 2 12.7 6.1
-7 7 -2 26.5 6.1
-7 7 -2 30.4 6.1
7 -7 2 17.6 7.4
7 -7 2 32.4 13.1
-8 7 -2 49.4 7.3
-8 7 -2 37.4 7.3
8 -7 2 18.1 14.7
-9 7 -2 4.4 6.7
9 -7 2 -15.2 17.1
7 6 -2 23.7 27
7 6 -2 21.7 27.6
6 6 -2 31.8 20.7
6 6 -2 4.9 22
-6 -6 2 7.8 8.9
5 6 -2 17.3 16.7
5 6 -2 9.7 16.7
-5 -6 2 -2.1 7.1
-5 -6 2 1.5 8.5
4 6 -2 -0.4 4.8
4 6 -2 9.2 14.5
4 6 -2 -6.2 12.7
-4 -6 2 -3.1 6.9
-4 -6 2 0.6 3.3
-4 -6 2 3.9 5.9
3 6 -2 165.58 20.3
3 6 -2 185.08 9.6
3 6 -2 181.38 19.6
3 6 -2 176.48 10.1
-3 -6 2 170.58 10.8
-3 -6 2 169.38 12.2
-3 -6 2 173.38 7.9
2 6 -2 -1 8.6
2 6 -2 -0.5 3.5
2 6 -2 0.2 3.7
2 6 -2 -2.6 7.6
-2 -6 2 2.2 3.9
-2 -6 2 -4.7 5.6
-2 -6 2 -0.7 4.5
-2 -6 2 0.6 2.7
1 6 -2 18.6 3.7
1 6 -2 2.4 6.2
1 6 -2 12.3 3.8
-1 -6 2 6.8 5
-1 -6 2 8.6 4.1
-1 -6 2 16.2 4
0 6 -2 12.2 5.6
0 6 -2 10.5 3.3
0 6 -2 3.9 3
0 6 -2 7.9 5.1
0 6 -2 6.2 2.8
0 -6 2 7.4 3.8
0 -6 2 8 3.2
0 -6 2 10 3.4
0 -6 2 3.1 4.4
-1 6 -2 202.48 7.9
-1 6 -2 200.28 10.5
-1 6 -2 202.88 11.5
-1 6 -2 198.58 8.8
1 -6 2 188.38 10.8
1 -6 2 213.98 12.1
-2 6 -2 9.9 2.7
-2 6 -2 10.5 3.2
2 -6 2 15 5.1
2 -6 2 6.2 3.4
-3 6 -2 70.49 5.6
-3 6 -2 62.89 6.8
3 -6 2 57.99 9.5
3 -6 2 60.29 6.9
-4 6 -2 15 4.3
-4 6 -2 17.1 3.6
4 -6 2 13 6.6
4 -6 2 20.9 4.7
-5 6 -2 2.8 3.8
-5 6 -2 10.2 3.6
5 -6 2 5.9 4.2
5 -6 2 11.6 7.9
-6 6 -2 17.5 4.3
-6 6 -2 13.5 4.4
6 -6 2 12 5.1
6 -6 2 7.9 8.8
-7 6 -2 43.2 6.7
-7 6 -2 40.8 6.1
7 -6 2 39.4 12.6
7 -6 2 58.09 8.3
-8 6 -2 -4.4 5.1
-8 6 -2 5.7 5.3
8 -6 2 -0.9 13.8
-9 6 -2 20.2 6.4
9 -6 2 24.4 18.1
7 5 -2 0.1 22.8
7 5 -2 19.1 24.1
-7 -5 2 7.4 9.6
6 5 -2 22.8 19
6 5 -2 17.5 18.3
-6 -5 2 14 8.2
5 5 -2 327.07 29.4
5 5 -2 340.57 30.2
-5 -5 2 339.27 17.6
-5 -5 2 302.67 18.5
4 5 -2 -7.9 10.1
4 5 -2 2 3.5
4 5 -2 -2.6 11.3
-4 -5 2 1.8 2.9
-4 -5 2 1.8 5.1
-4 -5 2 -3.2 5.6
3 5 -2 884.21 37.1
3 5 -2 863.71 26.7
3 5 -2 960.5 27.9
3 5 -2 922.61 37.3
3 5 -2 913.41 28
-3 -5 2 932.41 26.7
-3 -5 2 934.01 31.1
-3 -5 2 969.6 30.5
2 5 -2 45.9 6.2
2 5 -2 51.19 4.6
2 5 -2 56.79 9.1
2 5 -2 49.7 5.6
2 5 -2 43.2 8.8
2 5 -2 56.79 5.8
-2 -5 2 39.9 6.2
-2 -5 2 48.8 5.4
-2 -5 2 43.4 4.2
-2 -5 2 46.4 6.2
1 5 -2 71.19 5
1 5 -2 71.89 6.8
1 5 -2 88.09 9.7
1 5 -2 76.79 6
1 5 -2 85.69 6.3
1 5 -2 87.59 5.8
-1 -5 2 81.09 6.1
-1 -5 2 86.89 4.8
-1 -5 2 90.69 6.7
-1 -5 2 91.59 7.5
-1 -5 2 87.39 5.6
0 5 -2 100.49 5.3
0 5 -2 94.89 5.7
0 5 -2 92.39 6.4
0 5 -2 104.39 8.5
0 5 -2 91.49 5.6
0 5 -2 97.69 6.3
0 -5 2 98.49 5.2
0 -5 2 95.19 7.4
0 -5 2 91.59 5.4
0 -5 2 97.99 5.9
0 -5 2 94.89 6.8
-1 5 -2 365.16 13
-1 5 -2 384.96 12.1
-1 5 -2 357.56 15.9
-1 5 -2 371.26 14.5
-1 5 -2 389.46 14.7
1 -5 2 380.16 15.2
1 -5 2 396.16 14.9
-2 5 -2 1558.44 50.09
-2 5 -2 1639.44 46.2
-2 5 -2 1669.13 48.6
2 -5 2 1674.73 49.8
2 -5 2 1692.73 48.6
-3 5 -2 0.6 2.1
-3 5 -2 0.8 2.9
3 -5 2 1 4.3
3 -5 2 -0.9 2.9
-4 5 -2 48.8 6
-4 5 -2 56.69 5
4 -5 2 63.69 9.4
4 -5 2 46.4 6.5
-5 5 -2 37 5
-5 5 -2 32.7 5.1
5 -5 2 35.3 7.9
5 -5 2 44.2 6.8
-6 5 -2 19 3.6
-6 5 -2 13.6 3.9
-6 5 -2 10.4 3.6
6 -5 2 14.5 4.8
6 -5 2 9.2 8
6 -5 2 -5.3 8.9
-7 5 -2 6.2 3.9
-7 5 -2 3.7 4.4
-7 5 -2 11.2 4.1
7 -5 2 3.2 5.6
7 -5 2 1.4 10.6
-8 5 -2 73.29 8.1
-8 5 -2 85.59 9.1
-8 5 -2 79.39 8.8
8 -5 2 98.59 18.7
-9 5 -2 7 6
-9 5 -2 1.7 5.7
9 -5 2 -7.8 17.1
8 4 -2 -9.6 25.5
8 4 -2 -41.8 25.9
-8 -4 2 7.6 11
7 4 -2 16.8 21.6
7 4 -2 42.6 21.6
-7 -4 2 13.3 8.6
6 4 -2 74.99 19.5
6 4 -2 52.59 17.3
-6 -4 2 54.59 9.8
5 4 -2 4.8 11.3
5 4 -2 -1.4 10.7
-5 -4 2 20.8 5.9
-5 -4 2 11.1 6.1
4 4 -2 79.89 5.6
4 4 -2 89.19 14.9
4 4 -2 87.29 14.7
-4 -4 2 98.19 8.4
-4 -4 2 84.79 5.5
-4 -4 2 99.09 9.1
3 4 -2 -4 7.3
3 4 -2 3.2 2.3
3 4 -2 2.7 6.8
-3 -4 2 1.9 2
-3 -4 2 4.5 3.3
-3 -4 2 2.6 3.8
2 4 -2 9.7 5.3
2 4 -2 21.8 3.1
2 4 -2 14.3 7.2
2 4 -2 25.5 3.3
2 4 -2 20.7 3
-2 -4 2 24.3 4.2
-2 -4 2 25 4.5
-2 -4 2 23.2 3
1 4 -2 3.4 4.4
1 4 -2 -0.2 2.4
1 4 -2 6 2.4
1 4 -2 3.2 3.9
1 4 -2 -1.1 2
1 4 -2 1.7 3.3
1 4 -2 0 2.3
1 4 -2 2 2.7
1 4 -2 4 1.8
-1 -4 2 4 2.6
-1 -4 2 1.6 2.1
-1 -4 2 4.2 2.1
-1 -4 2 -2.3 2.9
-1 -4 2 3.2 1.6
0 4 -2 255.57 10
0 4 -2 261.87 9.1
0 4 -2 254.37 9.5
0 4 -2 250.27 11.1
0 4 -2 269.67 10.7
0 4 -2 270.97 9
0 4 -2 252.87 9.4
0 4 -2 249.68 11.4
0 -4 2 251.37 10.6
0 -4 2 252.77 8.8
0 -4 2 256.77 10.4
0 -4 2 253.87 9.2
0 -4 2 251.97 9.1
-1 4 -2 1662.73 46.7
-1 4 -2 1736.63 46.1
-1 4 -2 1672.23 48
-1 4 -2 1634.54 49.3
-1 4 -2 1744.63 48.5
-1 4 -2 1732.03 47.2
1 -4 2 1687.63 49.1
1 -4 2 1782.12 48.7
1 -4 2 1717.43 48
-2 4 -2 223.98 8.3
-2 4 -2 216.48 8.2
-2 4 -2 203.98 11
-2 4 -2 208.18 9.2
2 -4 2 220.38 9.5
2 -4 2 213.78 8.9
2 -4 2 224.88 10.9
-3 4 -2 23.4 3.3
-3 4 -2 27.9 4.1
-3 4 -2 22.6 5.3
3 -4 2 23.7 4.9
3 -4 2 26.1 4.2
-4 4 -2 209.68 8.5
-4 4 -2 219.48 8.9
4 -4 2 220.18 10.3
4 -4 2 209.28 14.1
4 -4 2 198.48 10.4
-5 4 -2 7.2 2.5
-5 4 -2 5.3 3.3
-5 4 -2 7 3
5 -4 2 0.8 4.7
5 -4 2 5 6.1
5 -4 2 3.3 4.1
-6 4 -2 31.3 4.7
-6 4 -2 25.1 4.3
-6 4 -2 27.8 4.2
6 -4 2 18.7 4.6
6 -4 2 44.4 11.6
-7 4 -2 32.6 5.1
-7 4 -2 40.9 6.3
-7 4 -2 36.5 4.9
7 -4 2 34.1 12.7
7 -4 2 45.5 6.2
-8 4 -2 53.19 6.1
-8 4 -2 47.5 7.8
-8 4 -2 50.09 6.1
8 -4 2 72.89 17.6
-9 4 -2 4.1 7.5
-9 4 -2 -0.6 6.2
9 -4 2 16.4 17.7
10 -4 2 -1.8 22.7
8 3 -2 23.2 22.7
8 3 -2 -1.3 21.9
-8 -3 2 8.6 9.2
7 3 -2 -18.5 17.2
7 3 -2 -20.5 17.2
-7 -3 2 15.4 8.2
6 3 -2 52.79 14.6
6 3 -2 30.9 15
-6 -3 2 41.5 6
-6 -3 2 26.4 7
5 3 -2 356.76 24.1
5 3 -2 368.36 12.9
5 3 -2 378.36 25.1
-5 -3 2 396.56 16.9
-5 -3 2 397.36 13
4 3 -2 11.5 2.4
4 3 -2 21.2 9
4 3 -2 13.4 6.9
-4 -3 2 9.1 4
-4 -3 2 8.6 2.2
-4 -3 2 7.8 4.4
3 3 -2 79.19 10.3
3 3 -2 81.09 4.6
3 3 -2 80.29 10.9
-3 -3 2 86.89 6.2
-3 -3 2 88.49 6.6
-3 -3 2 88.09 4.4
2 3 -2 -1.4 4.5
2 3 -2 1.3 2.2
2 3 -2 6.5 4.5
2 3 -2 0.4 1.5
2 3 -2 1.3 1.4
2 3 -2 0.4 1.9
2 3 -2 3.6 2.6
2 3 -2 0.1 3.3
-2 -3 2 1 2.3
-2 -3 2 1.5 2.2
-2 -3 2 -0.1 3.4
-2 -3 2 2 1.4
-2 -3 2 -1.1 1.6
1 3 -2 14.9 3.8
1 3 -2 15.4 2.3
1 3 -2 10.2 2
1 3 -2 12.6 2.4
1 3 -2 15.8 2.6
1 3 -2 13.8 2.8
1 3 -2 14.2 3.5
1 3 -2 12.2 1.6
-1 -3 2 9.1 1.9
-1 -3 2 15.1 2.4
-1 -3 2 19 2
-1 -3 2 12.9 2.4
-1 -3 2 12.7 2.7
0 3 -2 223.78 7.6
0 3 -2 226.68 7.8
0 3 -2 221.18 9
0 3 -2 228.18 8.3
0 3 -2 221.68 9.6
0 3 -2 231.78 8.4
0 3 -2 212.38 7.7
0 -3 2 221.68 7.7
0 -3 2 224.28 7.8
0 -3 2 233.88 8.9
0 -3 2 227.18 7.6
0 -3 2 223.78 8.5
-1 3 -2 478.15 15.6
-1 3 -2 491.45 16.4
-1 3 -2 497.45 14.5
-1 3 -2 485.35 14.9
-1 3 -2 469.35 15.3
1 -3 2 481.55 15.5
1 -3 2 481.65 16.1
1 -3 2 476.95 15.3
1 -3 2 475.75 15.7
-2 3 -2 7.3 3.2
-2 3 -2 12.4 2.3
-2 3 -2 7.2 1.6
-2 3 -2 7 1.5
-2 3 -2 10.6 3.2
2 -3 2 6.5 2.1
2 -3 2 5.5 2.6
2 -3 2 5 1.8
2 -3 2 9 2.6
-3 3 -2 7.4 2
-3 3 -2 4.9 4.7
-3 3 -2 5.2 1.8
-3 3 -2 8.8 2.3
3 -3 2 6.2 2.4
3 -3 2 6.9 2
3 -3 2 7.4 3.3
3 -3 2 7 3.7
-4 3 -2 3.4 2.6
-4 3 -2 -1 1.8
-4 3 -2 0 2.4
4 -3 2 1.9 2.5
4 -3 2 -2 2.4
4 -3 2 -1.6 4.4
4 -3 2 4 3
-5 3 -2 46.8 4.7
-5 3 -2 53.79 5.8
-5 3 -2 43.1 5.3
5 -3 2 45.8 9
5 -3 2 49.6 5.7
-6 3 -2 28.4 3.9
-6 3 -2 22.8 4.9
-6 3 -2 30.7 5
-6 3 -2 16.4 3.9
6 -3 2 33.4 9.4
6 -3 2 22.1 4.5
-7 3 -2 38.7 4.9
-7 3 -2 42.4 6.7
7 -3 2 38.3 12.8
-8 3 -2 13.2 4.4
-8 3 -2 23.5 6.1
8 -3 2 26 14.9
8 -3 2 9.8 13.3
-9 3 -2 1.5 7.4
-9 3 -2 -3.9 5.1
9 -3 2 21.5 19.1
9 -3 2 -13.5 16.6
10 -3 2 -28.6 23.3
9 2 -2 -29.9 24.3
9 2 -2 33.2 26.4
-9 -2 2 -19.8 10.8
8 2 -2 17.2 20.8
8 2 -2 45 20.5
-8 -2 2 37.5 10.3
7 2 -2 52.99 17.5
7 2 -2 34.3 17.8
-7 -2 2 28.8 7.5
-7 -2 2 16.2 4.2
6 2 -2 549.25 32.3
6 2 -2 545.25 32.1
-6 -2 2 566.64 18.3
-6 -2 2 622.24 23
5 2 -2 12.7 9.8
5 2 -2 -4.5 7.9
5 2 -2 -0.1 2.7
-5 -2 2 5.4 2.4
-5 -2 2 4.5 4.1
4 2 -2 66.79 10.2
4 2 -2 52.69 4.4
4 2 -2 71.99 10.8
-4 -2 2 67.29 5.8
-4 -2 2 55.59 4.2
3 2 -2 128.39 10.9
3 2 -2 128.29 10.1
3 2 -2 143.99 5.7
-3 -2 2 107.29 10.6
-3 -2 2 141.19 5.6
-3 -2 2 135.99 7.5
-3 -2 2 139.69 7.2
2 2 -2 266.07 12.7
2 2 -2 270.57 8.7
2 2 -2 269.57 9.8
2 2 -2 274.07 13.4
2 2 -2 269.77 10.6
2 2 -2 273.97 10.1
-2 -2 2 276.77 10.1
-2 -2 2 278.87 8.7
-2 -2 2 269.17 10.2
-2 -2 2 264.87 11.9
1 2 -2 198.38 6.6
1 2 -2 202.68 8.8
1 2 -2 203.68 6.9
1 2 -2 201.28 9.5
1 2 -2 207.78 7.4
1 2 -2 207.48 7.4
1 2 -2 208.08 7.8
-1 -2 2 199.88 8.3
-1 -2 2 195.08 7.6
-1 -2 2 204.48 7.4
-1 -2 2 196.38 7.4
-1 -2 2 200.38 6.9
-1 -2 2 201.68 6.6
0 2 -2 1558.24 41.1
0 2 -2 1506.45 40.3
0 2 -2 1486.65 42.4
0 2 -2 1500.65 40.5
0 2 -2 1488.85 40.9
0 -2 2 1527.55 40.8
0 -2 2 1503.85 40.3
0 -2 2 1443.66 40.9
0 -2 2 1515.95 42.3
0 -2 2 1484.85 40.2
-1 2 -2 5800.62 156.38
-1 2 -2 5913.01 155.98
-1 2 -2 5820.02 156.68
-1 2 -2 5732.13 155.58
-1 2 -2 6251.67 157.38
1 -2 2 5995.4 156.98
1 -2 2 6035.5 156.48
1 -2 2 6101.79 157.08
1 -2 2 5967.3 156.38
-2 2 -2 93.09 4.1
-2 2 -2 94.59 4.7
-2 2 -2 86.79 5.1
-2 2 -2 96.19 6.8
2 -2 2 96.89 4.7
2 -2 2 89.39 6.3
2 -2 2 89.79 4.4
2 -2 2 104.19 5.9
-3 2 -2 34.2 5.5
-3 2 -2 25.1 2.5
-3 2 -2 22.6 3.2
-3 2 -2 22.8 3.3
3 -2 2 25.1 3.3
3 -2 2 29.6 5.6
3 -2 2 24.9 3.8
3 -2 2 26.2 2.7
-4 2 -2 -2.9 2.5
-4 2 -2 -0.3 2.2
-4 2 -2 -0.2 1.7
4 -2 2 2.7 5.2
4 -2 2 3.7 1.8
4 -2 2 3 2.3
4 -2 2 5.9 3.2
-5 2 -2 199.98 8.7
-5 2 -2 204.88 9.9
-5 2 -2 205.68 8.3
5 -2 2 216.68 15.7
5 -2 2 203.78 9.3
5 -2 2 220.58 9.1
5 -2 2 188.38 16
5 -2 2 182.58 8.4
-6 2 -2 511.25 16.6
-6 2 -2 501.45 19
6 -2 2 494.85 24.9
6 -2 2 492.65 28
-7 2 -2 247.98 10.6
-7 2 -2 241.28 12.7
7 -2 2 233.88 25
7 -2 2 214.18 21.8
-8 2 -2 33.6 7.5
-8 2 -2 18 4.4
8 -2 2 20.4 14.5
8 -2 2 55.59 17.3
-9 2 -2 -4 7.7
9 -2 2 1.4 19.1
9 -2 2 -9.8 19
9 1 -2 30.9 22.2
9 1 -2 11.7 23.8
-9 -1 2 19.4 10
8 1 -2 12 18.8
8 1 -2 -3.8 18.1
-8 -1 2 7.3 4.9
-8 -1 2 19.1 8
7 1 -2 6.8 13.1
7 1 -2 10.2 14.9
-7 -1 2 3.5 3.7
-7 -1 2 6.2 5.9
6 1 -2 33.2 11.6
6 1 -2 23.9 11.6
-6 -1 2 29.2 4
-6 -1 2 30.5 5.8
5 1 -2 160.08 16.2
5 1 -2 173.08 16.5
5 1 -2 155.28 7.2
-5 -1 2 159.78 9.1
-5 -1 2 149.79 7.1
4 1 -2 102.39 12.3
4 1 -2 108.49 5.3
4 1 -2 106.39 12
-4 -1 2 108.79 5.4
-4 -1 2 111.79 6.8
3 1 -2 181.98 6.6
3 1 -2 139.49 11.2
3 1 -2 206.28 11.8
3 1 -2 176.28 8
3 1 -2 180.78 7.7
-3 -1 2 185.88 11.1
-3 -1 2 190.78 6.7
-3 -1 2 174.58 10.6
2 1 -2 17.5 1.9
2 1 -2 12.3 2.9
2 1 -2 15.6 2.6
2 1 -2 22 4.5
2 1 -2 17.7 2.4
-2 -1 2 15.9 2.2
-2 -1 2 17 3.5
-2 -1 2 17 1.9
-2 -1 2 11.9 3.5
1 1 -2 527.35 15.4
1 1 -2 526.65 14.8
1 1 -2 522.15 16.5
1 1 -2 533.65 17.8
1 1 -2 533.05 14.8
1 1 -2 524.65 17.1
-1 -1 2 528.45 15.4
-1 -1 2 533.05 14.9
-1 -1 2 514.85 17.5
-1 -1 2 525.05 16.4
0 1 -2 71.69 3.6
0 1 -2 66.69 3
0 1 -2 66.19 2.6
0 1 -2 68.89 3.8
0 -1 2 65.69 3
0 -1 2 65.69 2.6
0 -1 2 61.09 3.9
-1 1 -2 11.1 1.5
-1 1 -2 10.2 1.9
-1 1 -2 11.3 1.6
-1 1 -2 10.9 1.2
1 -1 2 10.6 1.6
1 -1 2 11.6 1.9
1 -1 2 10.8 1.4
1 -1 2 9.2 1.1
-2 1 -2 78.49 4.8
-2 1 -2 94.79 3.6
-2 1 -2 93.29 6.5
-2 1 -2 92.59 4.2
2 -1 2 87.79 3.7
2 -1 2 92.29 4.2
2 -1 2 90.89 5.3
2 -1 2 94.79 6.5
-3 1 -2 114.79 9.1
-3 1 -2 99.79 5.7
-3 1 -2 102.09 4.8
-3 1 -2 109.79 5.1
-3 1 -2 103.19 4.2
3 -1 2 98.59 4.3
3 -1 2 111.89 9
3 -1 2 101.79 5
3 -1 2 95.89 4.8
3 -1 2 100.89 6
3 -1 2 98.99 7.5
-4 1 -2 224.88 9.5
-4 1 -2 229.98 8
-4 1 -2 227.08 9.9
4 -1 2 218.98 13.2
4 -1 2 234.98 15
4 -1 2 227.48 9.3
4 -1 2 230.08 8
-5 1 -2 41.1 4
-5 1 -2 29.7 5.5
5 -1 2 29.3 3.7
5 -1 2 48.9 8.8
5 -1 2 33.5 9.1
-6 1 -2 82.99 5.8
-6 1 -2 91.29 7.8
6 -1 2 97.19 17.1
6 -1 2 73.09 6
6 -1 2 95.29 14.8
-7 1 -2 24.9 5.8
-7 1 -2 24.1 3.8
7 -1 2 33.4 15.3
7 -1 2 20.5 13.2
-8 1 -2 21.5 7.7
-8 1 -2 15.3 4.6
8 -1 2 -11.7 18.6
8 -1 2 16.9 14.9
-9 1 -2 2.2 8.6
9 -1 2 1.5 19.7
9 -1 2 -17.5 21.5
9 0 -2 33.9 23.4
9 0 -2 58.49 21.4
-9 0 2 22.7 9.6
8 0 -2 56.89 19.7
8 0 -2 44.3 17.7
-8 0 2 42.9 5.7
-8 0 2 61.29 10.7
7 0 -2 87.49 16.8
7 0 -2 81.69 15.6
-7 0 2 77.59 7
-7 0 2 67.09 8.5
6 0 -2 4 9.6
6 0 -2 16 10.4
-6 0 2 14 3
-6 0 2 12.7 4.4
5 0 -2 8.8 7.6
5 0 -2 1.1 2.5
5 0 -2 9.5 7.1
-5 0 2 1.4 2.2
-5 0 2 -1.4 2.8
4 0 -2 407.66 19.5
4 0 -2 376.56 13.9
4 0 -2 403.26 19.5
4 0 -2 406.46 12.7
-4 0 2 360.76 18.6
-4 0 2 406.86 12.9
-4 0 2 404.06 14.2
3 0 -2 8.1 2.3
3 0 -2 10.5 2.1
3 0 -2 2.4 3.8
3 0 -2 10 1.6
3 0 -2 13.4 5
-3 0 2 7.1 2
-3 0 2 8.8 4
-3 0 2 6.7 1.4
-3 0 2 3.9 4
2 0 -2 26 4.3
2 0 -2 20.7 2.1
2 0 -2 24.8 2.3
2 0 -2 22 3.6
-2 0 2 23.2 2.1
-2 0 2 23.2 2
-2 0 2 16.4 3.3
-2 0 2 18.9 3.8
1 0 -2 338.07 12.1
1 0 -2 347.67 9.8
1 0 -2 348.17 9.9
1 0 -2 327.97 11
1 0 -2 344.27 10.1
1 0 -2 316.07 11.2
-1 0 2 345.27 9.8
-1 0 2 323.27 11
-1 0 2 341.37 11.3
-1 0 2 335.27 10
-1 0 2 348.27 12.2
-1 0 2 331.87 9.8
0 0 -2 662.33 19.8
0 0 -2 610.54 18.3
0 0 -2 697.63 18.9
0 0 -2 718.33 18.5
0 0 -2 671.33 19.6
0 0 2 683.63 18.3
0 0 2 708.93 19
0 0 2 672.83 18.4
0 0 2 678.43 19.9
0 0 2 707.13 19.8
-1 0 -2 1699.13 46.7
-1 0 -2 1758.62 47.6
-1 0 -2 1683.93 46
-1 0 -2 1682.03 45.9
1 0 2 1774.92 47.9
1 0 2 1707.43 46.9
1 0 2 1689.73 46
1 0 2 1742.43 46.2
-2 0 -2 0.1 2.6
-2 0 -2 -3.1 1.5
-2 0 -2 -0.3 1.2
-2 0 -2 -1.9 1.4
2 0 2 -0.2 1.2
2 0 2 0.1 2.3
2 0 2 -0.3 2.1
2 0 2 -1.5 1.6
-3 0 -2 238.98 12.9
-3 0 -2 198.08 9.3
-3 0 -2 252.47 9.3
3 0 2 236.78 13.2
3 0 2 239.78 9.1
3 0 2 240.18 9.9
-4 0 -2 186.18 8.8
-4 0 -2 179.48 8.9
4 0 2 169.58 9
4 0 2 176.48 12.1
4 0 2 175.48 13.9
-5 0 -2 10.1 4.2
-5 0 -2 12 4.4
5 0 2 8.6 7.4
5 0 2 9.7 8.1
-6 0 -2 109.39 9.2
6 0 2 138.29 18.5
6 0 2 138.19 18.8
-7 0 -2 5.5 5.9
7 0 2 14.1 15.8
7 0 2 -2.5 13
-8 0 -2 -0.2 8.2
8 0 2 -3.8 18.3
8 0 2 5.6 19.1
-9 0 -2 -5.6 9.2
9 0 2 8.3 21.3
9 0 2 10.1 23.6
10 -1 -2 55.59 24.3
10 -1 -2 22.7 23.9
-10 1 2 11.5 10.5
9 -1 -2 -1.2 18.2
9 -1 -2 10.4 19.8
-9 1 2 4.5 8.6
-9 1 2 -3.3 5.8
8 -1 -2 9 14.5
8 -1 -2 21.6 15.3
-8 1 2 8.6 6
-8 1 2 11.4 4.5
7 -1 -2 79.99 15.2
7 -1 -2 53.69 13.3
-7 1 2 68.69 6.7
-7 1 2 66.99 7.6
6 -1 -2 0.6 8.6
6 -1 -2 4.7 8.8
-6 1 2 3.1 2.8
-6 1 2 4.4 3.3
5 -1 -2 4.5 6.2
5 -1 -2 -4.2 6.6
-5 1 2 1.9 2.7
-5 1 2 1.5 2.2
4 -1 -2 227.48 8.9
4 -1 -2 230.68 8.4
4 -1 -2 231.78 13.8
4 -1 -2 225.68 14
-4 1 2 241.58 9.3
-4 1 2 223.48 13.3
-4 1 2 199.48 8.4
3 -1 -2 24.3 2.6
3 -1 -2 27.7 5.7
3 -1 -2 28.6 2.6
3 -1 -2 28.1 5.3
-3 1 2 26 2.5
-3 1 2 33.4 6
-3 1 2 27.4 2.6
-3 1 2 24.1 4.5
2 -1 -2 140.09 7.7
2 -1 -2 133.09 5
2 -1 -2 139.89 5
2 -1 -2 139.89 7.8
2 -1 -2 135.49 5.1
2 -1 -2 139.99 6.2
-2 1 2 132.39 7.8
-2 1 2 140.19 5.1
-2 1 2 140.19 5
-2 1 2 138.79 5.2
-2 1 2 138.29 7.6
1 -1 -2 245.08 8.2
1 -1 -2 243.28 7.4
1 -1 -2 242.88 8.9
1 -1 -2 242.08 7.7
1 -1 -2 249.78 9.4
-1 1 2 241.68 7.4
-1 1 2 244.08 9.1
-1 1 2 248.78 9.5
-1 1 2 237.78 7.7
-1 1 2 229.68 8.2
0 -1 -2 126.59 5.9
0 -1 -2 103.09 3.8
0 -1 -2 126.29 5.1
0 -1 -2 123.39 4.6
0 1 2 122.09 5.1
0 1 2 129.69 4.7
0 1 2 126.19 3.9
0 1 2 130.29 6
-1 -1 -2 541.25 16.5
-1 -1 -2 539.95 15.6
-1 -1 -2 535.75 17.5
-1 -1 -2 529.15 16.6
1 1 2 555.04 18.1
1 1 2 502.65 16.5
1 1 2 517.35 16.6
1 1 2 538.55 15.6
1 1 2 548.35 16.7
-2 -1 -2 412.96 12.4
-2 -1 -2 405.06 13.5
-2 -1 -2 398.96 13.7
-2 -1 -2 405.76 16
2 1 2 402.76 13.9
2 1 2 390.66 14.2
2 1 2 420.86 12.5
2 1 2 412.26 13.7
2 1 2 412.16 16.9
-3 -1 -2 476.95 16.4
-3 -1 -2 491.45 16.2
-3 -1 -2 456.45 20.1
3 1 2 487.25 21.2
3 1 2 461.35 16.1
-4 -1 -2 351.96 14
-4 -1 -2 361.36 14.4
4 1 2 362.56 18.1
4 1 2 349.67 19.7
-5 -1 -2 3.7 4.8
-5 -1 -2 4.9 3.9
5 1 2 10.9 8.6
5 1 2 0.6 7.8
-6 -1 -2 326.17 15.8
-6 -1 -2 345.87 16.5
6 1 2 360.56 26.2
6 1 2 330.77 23.6
-7 -1 -2 7 6.9
7 1 2 27.5 15.3
7 1 2 8.8 17.4
-8 -1 -2 44.1 9.4
8 1 2 61.99 22.6
8 1 2 25.3 18.9
9 1 2 23 24
9 1 2 18.4 27.6
10 -2 -2 10.1 23
10 -2 -2 -2.5 22.8
-10 2 2 7.4 9
-10 2 2 3.2 9.7
9 -2 -2 8.2 17.8
9 -2 -2 9.6 18.1
-9 2 2 2.1 7.5
-9 2 2 15.4 6.3
8 -2 -2 26.6 13.8
8 -2 -2 46.7 16.1
-8 2 2 36.6 6.4
-8 2 2 32.6 5.3
7 -2 -2 47.2 12.5
7 -2 -2 55.59 12.7
-7 2 2 56.29 6.6
-7 2 2 51.59 6.5
6 -2 -2 92.89 14.4
6 -2 -2 64.49 11.7
-6 2 2 64.59 5.8
-6 2 2 63.59 5.7
5 -2 -2 -1.6 2.8
5 -2 -2 0.6 6.4
5 -2 -2 -3.7 5.1
-5 2 2 -2.2 2.1
-5 2 2 2.2 2.4
4 -2 -2 657.23 20.6
4 -2 -2 689.53 20.6
4 -2 -2 666.33 26.5
4 -2 -2 712.63 26.5
-4 2 2 711.13 20.7
-4 2 2 685.73 20.3
-4 2 2 674.23 25.8
-4 2 2 690.83 20.7
-4 2 2 713.33 21
3 -2 -2 53.89 3.1
3 -2 -2 50.39 3.4
3 -2 -2 60.79 6.4
3 -2 -2 60.59 6.6
3 -2 -2 57.29 3.7
-3 2 2 49 7
-3 2 2 53.29 3
-3 2 2 53.59 7.2
-3 2 2 57.49 3.9
-3 2 2 55.29 3.5
-3 2 2 50.49 3.4
2 -2 -2 228.68 10.3
2 -2 -2 232.88 10.1
2 -2 -2 219.68 7.4
2 -2 -2 214.68 7.8
-2 2 2 215.78 9.8
-2 2 2 216.38 7.5
-2 2 2 215.68 7.8
-2 2 2 204.48 10.1
1 -2 -2 209.28 9.8
1 -2 -2 190.08 8.7
1 -2 -2 187.38 6.3
1 -2 -2 190.78 7
-1 2 2 187.38 6.4
-1 2 2 187.38 8.5
-1 2 2 208.48 9.2
-1 2 2 189.68 7.1
0 -2 -2 344.77 11
0 -2 -2 354.06 12.3
0 -2 -2 343.37 12.5
0 -2 -2 343.27 9.9
0 2 2 341.07 12.9
0 2 2 337.57 9.9
0 2 2 343.67 12.3
0 2 2 357.36 11.2
0 2 2 335.87 11.4
-1 -2 -2 0.2 2.1
-1 -2 -2 3.4 1.4
-1 -2 -2 1.7 2.2
-1 -2 -2 2.7 1.6
1 2 2 3.5 2.3
1 2 2 3.5 2.6
1 2 2 1.9 2.3
1 2 2 5.9 2.2
1 2 2 5.9 1.5
-2 -2 -2 56.89 4.8
-2 -2 -2 59.69 6.3
-2 -2 -2 50.39 4.3
-2 -2 -2 51.49 3.7
2 2 2 61.59 5.6
2 2 2 56.09 3.7
2 2 2 53.39 4.7
2 2 2 61.19 7.5
2 2 2 54.79 4.9
-3 -2 -2 143.79 8.2
-3 -2 -2 142.19 7.9
3 2 2 136.49 12.6
-4 -2 -2 -3.3 3.4
-4 -2 -2 0.1 3.6
4 2 2 0.4 7
-5 -2 -2 49.7 7.3
-5 -2 -2 39.5 6.8
5 2 2 27.1 9.5
5 2 2 32.9 10
-6 -2 -2 44.4 7.9
-6 -2 -2 58.69 8.8
6 2 2 56.09 15.5
6 2 2 45.8 13
-7 -2 -2 0.7 7.2
-7 -2 -2 9.6 9.4
7 2 2 26 19.1
7 2 2 1 16.1
-8 -2 -2 -8.5 8.9
8 2 2 4 21.7
8 2 2 36.9 23.7
10 -3 -2 20.2 23.5
10 -3 -2 38.7 22.1
-10 3 2 23.1 8
-10 3 2 9.9 9.1
9 -3 -2 -4.8 17.1
9 -3 -2 30 17.1
-9 3 2 2.8 6.9
-9 3 2 5.8 6.4
8 -3 -2 55.99 16.3
8 -3 -2 43.3 13.8
-8 3 2 26.5 5.8
-8 3 2 36.9 5.4
7 -3 -2 20.1 10.7
7 -3 -2 -1.6 9.3
-7 3 2 5.8 3.8
-7 3 2 8.1 3.8
6 -3 -2 10.6 8.1
6 -3 -2 15.7 8
-6 3 2 18.4 3.1
-6 3 2 16.2 3.4
-6 3 2 10.3 3.2
5 -3 -2 276.87 16
5 -3 -2 272.27 16.6
5 -3 -2 258.97 9.9
-5 3 2 278.17 10.4
-5 3 2 271.67 10.8
-5 3 2 278.27 10.2
-5 3 2 265.57 10.5
4 -3 -2 140.09 11.3
4 -3 -2 141.09 10.6
4 -3 -2 150.08 7.7
-4 3 2 137.99 6.8
-4 3 2 148.59 7.2
-4 3 2 136.49 6.7
-4 3 2 122.69 10.7
3 -3 -2 940.91 27.2
3 -3 -2 981.5 28.3
3 -3 -2 970.6 32.2
3 -3 -2 959.1 30.6
-3 3 2 945.01 27.9
-3 3 2 918.01 30.9
-3 3 2 895.41 32.1
-3 3 2 958.3 27.4
-3 3 2 960.7 28.6
2 -3 -2 66.89 3.7
2 -3 -2 79.09 6.8
2 -3 -2 72.19 4.5
2 -3 -2 73.39 6.5
-2 3 2 62.39 6.4
-2 3 2 68.99 4.4
-2 3 2 71.99 3.9
-2 3 2 67.59 5
-2 3 2 78.69 6.7
1 -3 -2 212.28 8.4
1 -3 -2 222.38 7.4
1 -3 -2 227.58 10.4
1 -3 -2 219.58 9.9
-1 3 2 216.98 10.1
-1 3 2 214.28 10.2
-1 3 2 212.28 8.4
-1 3 2 226.08 7.5
0 -3 -2 312.97 10.2
0 -3 -2 299.57 12.3
0 -3 -2 316.07 9.5
0 -3 -2 316.27 11.9
0 -3 -2 317.47 11
0 3 2 310.67 12.5
0 3 2 303.77 9.4
0 3 2 309.07 10.6
0 3 2 313.07 10.9
-1 -3 -2 93.69 6.6
-1 -3 -2 89.09 5
-1 -3 -2 96.19 5.3
-1 -3 -2 88.29 5.8
1 3 2 85.99 6.3
1 3 2 96.79 5.7
1 3 2 90.59 7.8
1 3 2 86.79 6.6
1 3 2 98.29 5.2
-2 -3 -2 174.28 8.9
-2 -3 -2 193.38 7.9
-2 -3 -2 187.28 10.3
-2 -3 -2 181.98 8.6
2 3 2 177.98 12.5
2 3 2 182.18 7.8
-3 -3 -2 49.6 5
-3 -3 -2 37 5.7
-3 -3 -2 35.2 5.1
3 3 2 36.9 8.4
3 3 2 42.3 4.8
-4 -3 -2 -1.8 3.9
-4 -3 -2 -0.3 4.4
4 3 2 12.9 7.8
-5 -3 -2 146.39 10.6
-5 -3 -2 132.99 11.3
5 3 2 124.39 19
5 3 2 138.49 17.4
-6 -3 -2 -2.1 6.4
-6 -3 -2 1.9 8.8
6 3 2 1.6 14.7
6 3 2 29.5 14.9
-7 -3 -2 30.3 10.5
-7 -3 -2 31 9.7
7 3 2 -0.8 17.9
7 3 2 -5.1 21.6
-8 -3 -2 10.1 11.1
8 3 2 52.19 25
8 3 2 -22.6 25.8
10 -4 -2 -22.5 20.3
10 -4 -2 10.1 22.6
-10 4 2 1.3 8.6
9 -4 -2 12 17.5
9 -4 -2 16.6 16
-9 4 2 13.9 6.1
-9 4 2 21.6 6.5
8 -4 -2 26.6 12.5
8 -4 -2 29.7 14.2
-8 4 2 15.6 5.1
-8 4 2 18.4 4.9
7 -4 -2 4.1 10.1
7 -4 -2 -4.2 9.3
-7 4 2 7.9 3.7
-7 4 2 2.7 3.2
-7 4 2 -2.3 2.9
6 -4 -2 10.5 7.2
6 -4 -2 6.7 3.1
6 -4 -2 4.3 7.2
-6 4 2 5.9 2.9
-6 4 2 3.7 2.9
-6 4 2 6.2 2.9
5 -4 -2 -1.7 5.5
5 -4 -2 -0.2 6
-5 4 2 5.3 7.9
-5 4 2 -0.8 2.4
-5 4 2 3 2.5
4 -4 -2 692.33 25.2
4 -4 -2 704.43 27.4
-4 4 2 693.13 21.6
-4 4 2 709.53 22.3
-4 4 2 656.83 25.7
3 -4 -2 1378.76 44
3 -4 -2 1357.46 40.5
3 -4 -2 1373.86 41.8
-3 4 2 1388.16 39
-3 4 2 1424.96 40.1
-3 4 2 1384.46 42.6
-3 4 2 1347.87 40.7
2 -4 -2 310.37 10.6
2 -4 -2 305.37 12.1
2 -4 -2 330.67 14.6
2 -4 -2 326.87 13.8
-2 4 2 331.27 10.8
-2 4 2 318.97 11.9
-2 4 2 301.77 12.7
-2 4 2 294.47 13.8
-2 4 2 287.67 15
1 -4 -2 82.69 4.4
1 -4 -2 78.59 5.4
1 -4 -2 91.29 7
1 -4 -2 95.09 7.3
-1 4 2 78.69 8.2
-1 4 2 76.49 6.5
-1 4 2 76.09 7.3
-1 4 2 91.19 5.3
-1 4 2 89.99 4.4
0 -4 -2 234.68 8.2
0 -4 -2 232.68 8.5
0 -4 -2 226.08 9.7
0 -4 -2 223.18 11.1
0 -4 -2 237.88 10.4
0 4 2 232.28 7.7
0 4 2 230.88 9.4
0 4 2 200.18 11.8
0 4 2 238.88 9
-1 -4 -2 166.68 7.7
-1 -4 -2 161.68 8.9
-1 -4 -2 171.18 8.2
-1 -4 -2 163.58 9.9
1 4 2 169.48 8.1
1 4 2 178.38 8
1 4 2 157.78 11.6
-2 -4 -2 156.28 8.4
-2 -4 -2 154.08 8.2
-2 -4 -2 158.38 9.3
-2 -4 -2 156.98 10.1
2 4 2 156.38 7.9
2 4 2 138.59 12.4
-3 -4 -2 -2.5 3.8
-3 -4 -2 3 3.8
-3 -4 -2 -0.6 4.2
3 4 2 10.4 7.3
3 4 2 3.9 3.5
3 4 2 -7.7 4.7
-4 -4 -2 123.29 10.4
-4 -4 -2 116.49 9.5
4 4 2 100.69 15.6
-5 -4 -2 82.49 10.7
-5 -4 -2 97.39 11.9
5 4 2 92.39 18.3
5 4 2 88.19 17.6
-6 -4 -2 20.4 9.5
-6 -4 -2 37.6 9.5
6 4 2 43.4 16.2
6 4 2 34.8 20.9
-7 -4 -2 0.3 11.5
-7 -4 -2 -12.8 9.5
7 4 2 -9.8 22.9
7 4 2 17.5 20.1
10 -5 -2 -17.6 22.8
-10 5 2 1.7 7.8
9 -5 -2 24.9 15
9 -5 -2 22.6 18
-9 5 2 39.3 7.2
8 -5 -2 44.1 12.7
8 -5 -2 44.1 15.1
-8 5 2 19.6 4.9
-8 5 2 36.4 6
-8 5 2 31.9 5.8
7 -5 -2 44.5 10.3
7 -5 -2 34.3 11.6
-7 5 2 36.2 5.2
-7 5 2 34.1 4.9
6 -5 -2 0.8 8.5
6 -5 -2 10.9 7.7
-6 5 2 3.4 3.2
-6 5 2 6.7 3.4
5 -5 -2 31.7 7.6
5 -5 -2 26.2 8.6
-5 5 2 17.6 8.9
-5 5 2 29.7 4
-5 5 2 34.3 5.3
4 -5 -2 13.9 6
4 -5 -2 -1.2 5
-4 5 2 3.8 2.7
-4 5 2 0.4 5.9
-4 5 2 0.8 2.2
3 -5 -2 35.7 6.7
3 -5 -2 36.5 6.9
-3 5 2 48.1 4.4
-3 5 2 46.6 5.1
-3 5 2 36.7 6.7
2 -5 -2 99.69 8
2 -5 -2 88.89 9
-2 5 2 81.99 6
-2 5 2 82.99 5
-2 5 2 63.89 8.9
1 -5 -2 109.29 8.8
1 -5 -2 110.09 5.9
1 -5 -2 106.39 7.9
-1 5 2 105.99 6.7
-1 5 2 100.99 10.1
-1 5 2 109.59 5.3
0 -5 -2 9.8 2.8
0 -5 -2 7.1 4.1
0 -5 -2 1.6 3.7
0 -5 -2 9 2.8
0 5 2 5.8 3.3
0 5 2 0.5 2.2
0 5 2 6.6 1.9
0 5 2 6.1 3
-1 -5 -2 260.57 13.8
-1 -5 -2 288.37 12.9
-1 -5 -2 282.17 11.3
1 5 2 254.47 16
1 5 2 273.37 9.1
1 5 2 274.27 11.7
-2 -5 -2 5.3 3.9
-2 -5 -2 2.8 5.5
-2 -5 -2 -4.7 4.5
2 5 2 6 3.7
2 5 2 7.5 6.7
-3 -5 -2 3.3 4.7
-3 -5 -2 0.5 5.2
3 5 2 -0.2 9
3 5 2 3.1 4.8
-4 -5 -2 123.49 11.9
-4 -5 -2 111.59 10.6
4 5 2 139.59 23.7
4 5 2 120.19 10.1
-5 -5 -2 35.6 9.1
-5 -5 -2 17.7 8.2
5 5 2 16.8 14.9
5 5 2 31.3 16.9
-6 -5 -2 19.3 10.6
-6 -5 -2 8.1 9.3
6 5 2 6.5 21.3
6 5 2 9.7 18.3
-7 -5 -2 25 12
-7 -5 -2 18.8 13.5
7 5 2 -14.2 28.5
7 5 2 3.6 23.8
10 -6 -2 23.5 23.3
-10 6 2 3.7 7.6
9 -6 -2 -23.1 17.3
-9 6 2 -9.2 6.4
8 -6 -2 -14.1 13.2
-8 6 2 12.3 5
-8 6 2 11 5.5
7 -6 -2 40.1 13.1
-7 6 2 36.5 5.9
-7 6 2 47.9 7.5
6 -6 -2 135.39 17.3
6 -6 -2 140.39 13.7
-6 6 2 146.79 9.7
-6 6 2 157.48 9.3
5 -6 -2 33.8 9.1
-5 6 2 21.9 4.3
-5 6 2 32.6 4.4
4 -6 -2 6.9 6.5
4 -6 -2 6.6 6.7
-4 6 2 9.3 8.2
-4 6 2 5.5 2.7
-4 6 2 6.1 3.3
3 -6 -2 1.5 5.7
3 -6 -2 6.9 5.8
-3 6 2 -3.3 7.3
-3 6 2 4 3.4
-3 6 2 3 2.6
2 -6 -2 2.6 5
2 -6 -2 -2.6 4.4
-2 6 2 1.5 2.9
-2 6 2 0.7 2.4
1 -6 -2 19.2 5.1
1 -6 -2 19.4 6.2
-1 6 2 11 3.3
-1 6 2 11 2.7
0 -6 -2 6.1 4.1
0 -6 -2 5.2 3.1
0 -6 -2 3.2 4.4
0 -6 -2 -2.7 5
0 6 2 11.7 4.3
0 6 2 0.5 3
0 6 2 0.4 3.2
0 6 2 3.9 2.4
-1 -6 -2 41.8 7.5
-1 -6 -2 62.79 6.2
-1 -6 -2 63.49 8.2
1 6 2 63.69 10.7
1 6 2 62.39 4.7
1 6 2 62.09 5.4
1 6 2 68.99 7.3
-2 -6 -2 1.1 5.5
-2 -6 -2 8.6 6.7
-2 -6 -2 5.9 4.7
2 6 2 9.3 9
-3 -6 -2 74.49 9.1
-3 -6 -2 81.39 10.9
3 6 2 82.49 9.4
3 6 2 82.09 16.1
-4 -6 -2 14.8 8.2
-4 -6 -2 12.9 8.6
4 6 2 6.1 6.1
4 6 2 27.9 17.3
-5 -6 -2 2.9 8.2
-5 -6 -2 7.5 10.2
5 6 2 14.3 19.1
5 6 2 28.2 22.1
-6 -6 -2 5.2 12.4
-6 -6 -2 3.4 10.2
6 6 2 -35.3 23.9
6 6 2 20.4 22.3
9 -7 -2 5 18.3
-9 7 2 25.5 7.5
8 -7 -2 -2.6 16
-8 7 2 19.6 5.9
-8 7 2 7 5.8
7 -7 -2 -5.7 12
-7 7 2 19.2 5.3
-7 7 2 2.8 4.9
6 -7 -2 -4.9 9.8
-6 7 2 4.5 4.2
-6 7 2 2.8 4.4
5 -7 -2 26.3 8
5 -7 -2 37.4 9.9
-5 7 2 27.1 4.5
-5 7 2 20.9 5.1
4 -7 -2 185.48 16.7
-4 7 2 183.58 9.7
-4 7 2 185.48 11.3
3 -7 -2 30.7 8.2
3 -7 -2 38.6 6.9
-3 7 2 23.7 4.9
-3 7 2 37.7 4.9
2 -7 -2 4.7 6.4
2 -7 -2 3.9 5.5
-2 7 2 5.6 3.9
-2 7 2 2.4 3.1
1 -7 -2 3.7 5.4
1 -7 -2 -2.1 5.7
-1 7 2 4.3 3.7
-1 7 2 3.4 3.1
0 -7 -2 26.3 7
0 -7 -2 35.8 5.7
0 -7 -2 25.6 6.7
0 7 2 29.1 3.8
0 7 2 30.3 5.5
-1 -7 -2 2.7 6.6
-1 -7 -2 8.3 4.7
-1 -7 -2 4.2 6
1 7 2 -1.7 8.8
1 7 2 0.9 4.1
1 7 2 3 2.9
1 7 2 -7.8 4.5
-2 -7 -2 20 6.2
-2 -7 -2 23.1 9.4
-2 -7 -2 43 8.8
2 7 2 22.8 5.8
2 7 2 21.4 13.3
-3 -7 -2 -1.5 8.6
-3 -7 -2 6.9 6.9
3 7 2 10 6.3
3 7 2 -9.4 16.2
-4 -7 -2 4.7 9.9
-4 -7 -2 12.4 8.8
4 7 2 14 7.3
4 7 2 1.8 19.6
-5 -7 -2 73.39 13
-5 -7 -2 105.99 15.2
5 7 2 132.59 24.4
5 7 2 121.19 28.8
-9 8 2 6.8 8.3
-9 8 2 -13.7 7.3
8 -8 -2 58.89 18
-8 8 2 61.89 9.3
-8 8 2 53.69 8
7 -8 -2 19.6 13
-7 8 2 5.3 5.6
-7 8 2 24.9 6.7
6 -8 -2 21.3 12.8
-6 8 2 17.8 5.3
-6 8 2 13.6 6.4
5 -8 -2 55.89 12.6
-5 8 2 55.99 8.3
-5 8 2 53.59 7.3
4 -8 -2 64.59 11.5
4 -8 -2 86.59 11.1
-4 8 2 81.69 10.2
-4 8 2 85.69 8
3 -8 -2 266.07 19
3 -8 -2 290.07 15
-3 8 2 267.47 14.8
-3 8 2 275.87 12.5
2 -8 -2 1.6 7.4
2 -8 -2 3.4 6.1
-2 8 2 7 3.8
-2 8 2 1.7 4.7
1 -8 -2 -0.3 5.8
1 -8 -2 -7.2 7
-1 8 2 -0.5 3.7
-1 8 2 7.9 4.8
0 -8 -2 69.29 7.4
0 -8 -2 43.4 9.5
0 -8 -2 80.59 11.2
0 8 2 63.49 6.7
0 8 2 71.59 9.8
-1 -8 -2 3.8 9.6
-1 -8 -2 -4 7.4
-1 -8 -2 1 5.5
1 8 2 7.9 13.1
1 8 2 4.2 3.5
1 8 2 10.3 5.9
-2 -8 -2 13.9 9.2
-2 -8 -2 21.6 7.6
-2 -8 -2 -5.6 10.2
2 8 2 7.7 6.7
2 8 2 -2.2 16.3
-3 -8 -2 138.49 16
-3 -8 -2 110.59 13.7
3 8 2 146.19 27
3 8 2 104.99 13.6
-4 -8 -2 12.1 11.5
-4 -8 -2 7.6 10.1
4 8 2 16.7 24.6
4 8 2 -20 20.9
-5 -8 -2 -5.9 11.4
-5 -8 -2 18.5 14.3
5 8 2 8.2 26.7
5 8 2 8.4 30.5
8 -9 -2 -22.7 16
-8 9 2 11.8 7.3
-8 9 2 -2.3 8.1
7 -9 -2 19.4 15.4
-7 9 2 -7.6 6.2
-7 9 2 3.5 7.5
6 -9 -2 -16 12.6
-6 9 2 -6.1 5.5
-6 9 2 1.5 6.5
5 -9 -2 8.4 11.7
-5 9 2 5.2 6.8
-5 9 2 14.5 5.7
4 -9 -2 130.49 19.7
4 -9 -2 157.38 12.7
-4 9 2 119.49 11.4
-4 9 2 119.99 13
3 -9 -2 45.8 8
3 -9 -2 31.1 10.5
-3 9 2 37 7.9
-3 9 2 31.7 5.8
2 -9 -2 21.4 10
2 -9 -2 33.4 7.9
-2 9 2 15.1 5.2
-2 9 2 20.2 7
1 -9 -2 29.6 10.3
1 -9 -2 55.99 9.9
-1 9 2 53.59 8
0 -9 -2 18 10.1
0 -9 -2 22.3 9.9
0 -9 -2 17.5 6.2
0 9 2 18.9 7.4
0 9 2 19 4.7
-1 -9 -2 9.2 7
-1 -9 -2 7.2 11.3
-1 -9 -2 19.2 10.1
1 9 2 8.8 8.3
1 9 2 -6.7 16.6
1 9 2 4.5 4.1
-2 -9 -2 5.2 12.8
-2 -9 -2 24.3 10.7
-2 -9 -2 9.6 8.5
2 9 2 11.1 9.3
2 9 2 29.7 21
-3 -9 -2 27.1 9.8
-3 -9 -2 47.8 12.7
3 9 2 4.8 10.4
3 9 2 52.09 25.9
-4 -9 -2 25.8 13.5
-4 -9 -2 -4.1 10.7
4 9 2 23.4 27.7
4 9 2 0.9 31.3
8 -10 -2 -33.2 18.4
-8 10 2 1.9 9.5
-8 10 2 -19.7 8.1
7 -10 -2 45.3 17
-7 10 2 61.29 9.4
-7 10 2 60.79 10.5
6 -10 -2 -23.3 14.4
-6 10 2 -4.8 7.7
-6 10 2 -12.4 7
5 -10 -2 2.5 14
-5 10 2 5.4 8.5
-5 10 2 0.3 6.7
4 -10 -2 29.3 11.8
-4 10 2 46.3 7.4
-4 10 2 44.1 9.3
3 -10 -2 8.2 11.2
3 -10 -2 11.2 8.3
-3 10 2 -0.3 7.4
-3 10 2 11.7 6.3
2 -10 -2 3.9 10.6
2 -10 -2 27.4 9.3
-2 10 2 15.8 6.5
-2 10 2 17.7 8.2
1 -10 -2 24.9 11
1 -10 -2 10.6 11.4
-1 10 2 19.3 8.6
-1 10 2 11.8 5.8
0 -10 -2 18.2 10.8
0 -10 -2 15.5 12.7
0 10 2 -7.9 8.3
0 10 2 8.4 5.4
0 10 2 -18.6 17.2
-1 -10 -2 -2.3 11.1
-1 -10 -2 13.4 8.4
-1 -10 -2 -5.1 13.7
1 10 2 14.7 21.7
1 10 2 -5.2 9.1
-2 -10 -2 22.4 12.2
-2 -10 -2 8.2 9.6
-2 -10 -2 -10.9 16.2
2 10 2 36.6 26.4
2 10 2 4 10.4
6 -11 -2 -5.4 16
-6 11 2 -2 9.7
-6 11 2 1.7 8.6
5 -11 -2 0.2 14.6
-5 11 2 17.1 9.5
-5 11 2 9 7.8
4 -11 -2 140.09 17
4 -11 -2 65.29 14.8
-4 11 2 92.49 12.4
-4 11 2 108.69 13.7
3 -11 -2 22.6 13.8
3 -11 -2 43.6 11.4
-3 11 2 19.2 7.8
-3 11 2 5.4 9.8
2 -11 -2 39.1 12.2
2 -11 -2 34.7 13.9
-2 11 2 23.7 10
-2 11 2 13.3 7.9
1 -11 -2 11.9 14.1
1 -11 -2 8.5 12
-1 11 2 3.7 7.3
-1 11 2 7.1 10.2
0 -11 -2 18 11.9
0 -11 -2 18.7 15.1
0 11 2 -25.8 22.5
0 11 2 2.4 10.2
-1 -11 -2 -11 16.8
1 11 2 19.4 11.7
1 11 2 80.79 29.4
4 -12 -2 17.8 16.6
-4 12 2 -5.6 9.3
-4 12 2 -13.7 12.1
3 -12 -2 -4.7 15.5
-3 12 2 -2.3 12.2
-3 12 2 1 9.4
2 -12 -2 58.19 14.8
-1 12 -3 -12.8 12.6
-1 12 -3 -5.7 9.9
-1 12 -3 12.5 19.1
1 -12 3 8.4 16.3
-2 12 -3 25.6 14.2
-2 12 -3 22.9 9.5
2 -12 3 41.9 17.4
-3 12 -3 4.2 9.9
-3 12 -3 2.4 14
3 -12 3 5.5 15.4
-4 12 -3 -12.8 10.1
-4 12 -3 -32 13.9
4 -12 3 -21.9 15
-5 12 -3 -24.7 14.3
-5 12 -3 13.8 9.4
5 -12 3 0.3 15.3
2 11 -3 -6.5 24.4
2 11 -3 -22.7 40
2 11 -3 -16.7 10.9
2 11 -3 3.3 23.3
-2 -11 3 -11.3 11.9
-2 -11 3 -11.3 12.1
1 11 -3 -6 19.7
1 11 -3 7.3 10.9
1 11 -3 61.39 35
1 11 -3 22.2 8.4
-1 -11 3 25.7 16.4
-1 -11 3 23 10.6
0 11 -3 22.8 8.6
0 11 -3 -7.1 18
0 11 -3 32.7 28.2
0 11 -3 18.6 10.7
0 -11 3 2.6 10.2
0 -11 3 23.9 14.5
-1 11 -3 -0.1 20.3
-1 11 -3 19.4 11.5
-1 11 -3 4 8.9
1 -11 3 1.7 8
1 -11 3 9.1 13.5
-2 11 -3 -6.7 7.4
-2 11 -3 -17.6 11
2 -11 3 8.1 12.6
-3 11 -3 36.6 12.7
-3 11 -3 12.7 8
3 -11 3 21 13.1
-4 11 -3 -8.4 8.1
-4 11 -3 -13.7 10.6
4 -11 3 9.2 12.9
-5 11 -3 7.3 7.9
-5 11 -3 14.3 10.9
5 -11 3 -3.6 14.8
-6 11 -3 15.6 10.3
-6 11 -3 1 8.5
3 10 -3 1.5 22.2
3 10 -3 16.8 25.1
3 10 -3 16.8 33.9
-3 -10 3 -3.9 11.4
-3 -10 3 -0.4 11.4
2 10 -3 -16.4 19.5
2 10 -3 54.69 30.3
2 10 -3 -3.4 9.3
2 10 -3 -12.3 21.5
2 10 -3 12.5 6.6
-2 -10 3 -1 9.8
-2 -10 3 9.1 9.8
1 10 -3 20.4 25
1 10 -3 17.2 17.9
1 10 -3 15.5 8.7
1 10 -3 26.6 16.1
-1 -10 3 18.7 10.1
-1 -10 3 26.5 13
0 10 -3 35.5 15.1
0 10 -3 56.49 20.7
0 10 -3 43 8
0 10 -3 45.5 15
0 10 -3 51.49 10.4
0 -10 3 26.3 11.7
0 -10 3 42.4 8.2
-1 10 -3 21.8 16.5
-1 10 -3 13.8 7.1
-1 10 -3 8.4 8.9
1 -10 3 19.5 7.2
1 -10 3 -7.9 11.4
-2 10 -3 25.2 9.4
-2 10 -3 23.3 7
2 -10 3 12.2 10.8
-3 10 -3 11.2 10.2
-3 10 -3 6.1 6.2
3 -10 3 27.8 10.6
-4 10 -3 5.1 8.5
-4 10 -3 3.2 6.2
4 -10 3 -2.5 11.9
-5 10 -3 7.4 8.8
5 -10 3 6.1 12.5
-6 10 -3 103.39 16.2
-6 10 -3 117.59 13.2
6 -10 3 93.79 17
-7 10 -3 -2.1 8.7
-7 10 -3 2 7.2
7 -10 3 9 16.6
4 9 -3 38.9 31.1
4 9 -3 27.8 22.9
4 9 -3 -1.2 23.7
-4 -9 3 7.3 11.4
-4 -9 3 -15 10.4
3 9 -3 22.2 29.1
3 9 -3 55.29 22
3 9 -3 47.1 9
3 9 -3 81.29 20.3
3 9 -3 62.09 10.2
-3 -9 3 67.79 12.2
-3 -9 3 44.4 10.6
2 9 -3 4.4 23.2
2 9 -3 13 16.4
2 9 -3 4.7 7.5
2 9 -3 12.7 16.4
2 9 -3 1.2 6
-2 -9 3 -1.6 11.9
-2 -9 3 -9.6 7.3
-2 -9 3 2 8.6
1 9 -3 14.3 13.1
1 9 -3 16.9 17.8
1 9 -3 9.8 5.9
1 9 -3 18.2 14
1 9 -3 3.8 7.5
-1 -9 3 12.2 6.5
-1 -9 3 13 10.3
-1 -9 3 13.3 7.2
0 9 -3 8.5 5.3
0 9 -3 10 7
0 9 -3 3.5 14.3
0 9 -3 -16.4 10.4
0 9 -3 23 13.1
0 -9 3 16.5 8.6
0 -9 3 3.4 6
-1 9 -3 2.3 7.3
-1 9 -3 4.4 9.8
-1 9 -3 -4.8 4.9
1 -9 3 -8.9 8.2
-2 9 -3 6.3 5.1
-2 9 -3 3.4 7.3
2 -9 3 22.2 9.3
2 -9 3 9.6 7.9
-3 9 -3 13.6 7.4
-3 9 -3 9.5 5.4
3 -9 3 2.2 8.2
3 -9 3 15.4 8.8
-4 9 -3 1 5.2
-4 9 -3 -4.6 6.2
4 -9 3 5.9 7.7
4 -9 3 -10.9 8.9
-5 9 -3 2.8 5.3
-5 9 -3 15.6 7
5 -9 3 -0.3 8.3
5 -9 3 1.8 11.1
-6 9 -3 21.9 6.3
-6 9 -3 24.5 7.5
6 -9 3 10.2 9.3
6 -9 3 5.4 12.6
-7 9 -3 -2.1 7.2
-7 9 -3 3 6.4
7 -9 3 7.4 13.8
-8 9 -3 1.2 8.2
-8 9 -3 15.6 7.2
8 -9 3 -2.5 16.4
5 8 -3 17.6 22.9
5 8 -3 -51.49 27.5
-5 -8 3 -5.2 9.6
-5 -8 3 -4.6 10.9
4 8 -3 157.48 26.2
4 8 -3 143.09 24.7
4 8 -3 143.09 28.9
-4 -8 3 108.89 13.6
-4 -8 3 108.19 15.8
3 8 -3 -4.4 21.8
3 8 -3 32.7 15.5
3 8 -3 -8.4 5.8
3 8 -3 0.9 6.6
3 8 -3 9.9 17.8
-3 -8 3 16.6 8.3
-3 -8 3 4.1 7.5
2 8 -3 -19.8 11.3
2 8 -3 -1.5 5.3
2 8 -3 -0.6 6
2 8 -3 1.1 16.5
2 8 -3 -8.5 12.4
-2 -8 3 16.5 9.1
-2 -8 3 7.5 6.6
-2 -8 3 -3.2 6.3
1 8 -3 29.3 13.6
1 8 -3 23.6 5.4
1 8 -3 22.4 6.2
1 8 -3 13.8 10
1 8 -3 32.8 11.5
-1 -8 3 23.2 6
-1 -8 3 21.8 6.4
-1 -8 3 15.3 8
0 8 -3 3.4 5.7
0 8 -3 -3.4 10.4
0 8 -3 13.7 9.4
0 8 -3 1 4.4
0 -8 3 1 4.9
0 -8 3 7.3 4.7
0 -8 3 3.4 7
0 -8 3 4.2 6.9
-1 8 -3 5 5.2
-1 8 -3 13.3 5.3
-1 8 -3 15.6 8.4
-1 8 -3 5.6 4.1
1 -8 3 -4.8 6.2
1 -8 3 12.8 6.3
-2 8 -3 3.6 4.7
-2 8 -3 -0.3 3.8
2 -8 3 8.1 6.6
2 -8 3 -9.8 5.3
-3 8 -3 302.77 13.4
-3 8 -3 305.27 16.1
3 -8 3 307.37 16.8
3 -8 3 315.77 19
-4 8 -3 -3.8 4.6
-4 8 -3 -0.5 4
4 -8 3 -0.1 5.8
4 -8 3 -6.3 7.5
-5 8 -3 22.6 5.9
-5 8 -3 14 5.5
5 -8 3 14 9.7
5 -8 3 22.9 7.2
-6 8 -3 18.2 6.6
-6 8 -3 34 6.2
6 -8 3 35.4 11.4
6 -8 3 28.4 8.9
-7 8 -3 -5 5
-7 8 -3 -2.2 6.1
7 -8 3 3.3 8.2
7 -8 3 -11.5 12.3
-8 8 -3 6.1 7.5
-8 8 -3 20.6 7.1
8 -8 3 21.2 16.4
-9 8 -3 15.9 7.8
-9 8 -3 17.1 8.8
9 -8 3 12.2 19.7
6 7 -3 85.69 30.2
6 7 -3 7.7 23.2
-6 -7 3 28.1 10.8
5 7 -3 -5.5 18.5
5 7 -3 -0.7 22
-5 -7 3 -2.9 9.8
-5 -7 3 6.9 8.3
4 7 -3 37 6
4 7 -3 28.5 19.7
4 7 -3 44 17.6
4 7 -3 37.5 6.5
-4 -7 3 51.29 10.7
-4 -7 3 42.2 5.1
-4 -7 3 29.9 7.9
3 7 -3 24.9 5.9
3 7 -3 22.7 5.5
3 7 -3 16.8 16.3
3 7 -3 11.2 11.9
-3 -7 3 14.8 4.2
-3 -7 3 17.7 7
-3 -7 3 7.2 5.9
2 7 -3 85.69 13.7
2 7 -3 86.39 16
2 7 -3 102.19 14.8
2 7 -3 71.89 9.8
2 7 -3 76.39 8.5
-2 -7 3 69.29 6.7
-2 -7 3 78.49 9.6
-2 -7 3 60.99 9.1
-2 -7 3 84.39 8.5
1 7 -3 65.99 12.4
1 7 -3 57.19 8.9
1 7 -3 67.29 11.5
1 7 -3 37.6 9.3
1 7 -3 50.49 7.2
-1 -7 3 59.29 7.8
-1 -7 3 43 7.5
-1 -7 3 53.19 8.2
-1 -7 3 41.6 6.9
0 7 -3 12.3 4
0 7 -3 21.3 4.9
0 7 -3 12.9 9.3
0 7 -3 21.5 8.2
0 -7 3 14.6 5.7
0 -7 3 15.1 5.3
0 -7 3 17.9 4.2
0 -7 3 18.1 4.4
-1 7 -3 4 3.6
-1 7 -3 0.9 3.4
-1 7 -3 -2.8 3.8
-1 7 -3 1.8 6
1 -7 3 -5.9 4.2
1 -7 3 9.7 5.3
-2 7 -3 0.6 3
-2 7 -3 5.5 4.1
2 -7 3 3.7 5.6
2 -7 3 1.1 4.2
-3 7 -3 19.2 4.7
3 -7 3 16.7 5.3
3 -7 3 15.8 6.5
-4 7 -3 28.2 5.5
-4 7 -3 39.6 5.2
4 -7 3 39.2 6.8
4 -7 3 28.2 8.5
-5 7 -3 3.3 3.8
-5 7 -3 6.2 4.6
5 -7 3 1.1 5
5 -7 3 9.9 8.2
-6 7 -3 2.6 4.2
-6 7 -3 5 5.2
6 -7 3 5.4 9.1
6 -7 3 7.2 5.8
-7 7 -3 3.5 4.9
-7 7 -3 4.6 5.7
7 -7 3 -4.5 6.8
7 -7 3 13.1 13.7
-8 7 -3 2.3 5.3
-8 7 -3 -10.3 6.2
8 -7 3 13.4 14.6
8 -7 3 11.9 8.9
-9 7 -3 5.4 6.6
9 -7 3 -14.4 18.4
7 6 -3 -23.8 24.7
7 6 -3 -3.7 28
-7 -6 3 5.1 10.6
6 6 -3 38.2 23
6 6 -3 32 21.9
-6 -6 3 16.4 8.7
5 6 -3 16.5 6.2
5 6 -3 10.3 17.1
5 6 -3 27.9 18.5
-5 -6 3 29.4 4.6
-5 -6 3 30.9 9.4
-5 -6 3 15.4 7.6
4 6 -3 66.39 15.3
4 6 -3 71.89 9.5
4 6 -3 70.49 17.2
-4 -6 3 58.39 6.2
-4 -6 3 55.29 9
-4 -6 3 59.69 10.8
3 6 -3 52.99 8.3
3 6 -3 46.1 12
3 6 -3 50.29 5.9
3 6 -3 45.1 13.3
-3 -6 3 50.59 5.5
-3 -6 3 51.59 7.9
-3 -6 3 42.9 7.3
2 6 -3 176.58 16.5
2 6 -3 183.28 9.7
2 6 -3 182.88 18.2
2 6 -3 172.78 15.9
2 6 -3 183.08 10.1
-2 -6 3 166.08 8
-2 -6 3 165.68 12.3
-2 -6 3 167.58 10.8
-2 -6 3 164.18 9.8
1 6 -3 18 4.1
1 6 -3 24 3.9
1 6 -3 26.5 8.3
1 6 -3 29.2 7.5
1 6 -3 17.8 6.7
-1 -6 3 21.9 3.3
-1 -6 3 23 4.7
-1 -6 3 21.8 5.4
-1 -6 3 24.2 5.1
-1 -6 3 27.3 4.6
0 6 -3 274.37 15
0 6 -3 253.67 10.8
0 6 -3 291.57 13
0 6 -3 283.67 15.1
0 6 -3 249.88 11.7
0 6 -3 282.47 11.4
0 -6 3 269.27 11.3
0 -6 3 274.37 10.9
0 -6 3 265.87 12.6
0 -6 3 270.57 10.5
0 -6 3 277.37 13.9
-1 6 -3 476.35 16.9
-1 6 -3 489.95 19
-1 6 -3 504.95 16
-1 6 -3 492.85 19.7
1 -6 3 493.75 19.3
1 -6 3 508.85 19.1
-2 6 -3 6.3 2.7
-2 6 -3 6.8 3.5
2 -6 3 9.4 3.9
2 -6 3 4.2 4.7
-3 6 -3 25.1 3.8
-3 6 -3 23.3 4.7
3 -6 3 23.3 4.9
3 -6 3 25.2 6.4
-4 6 -3 32.6 4.5
-4 6 -3 25.4 5.1
4 -6 3 23.3 6.7
4 -6 3 36.6 6
-5 6 -3 138.09 10.4
-5 6 -3 140.59 8.6
5 -6 3 125.69 10.4
5 -6 3 141.19 14.8
-6 6 -3 24.1 5.4
-6 6 -3 32.8 5.1
6 -6 3 46.6 10.4
6 -6 3 28.1 6.3
-7 6 -3 1.8 4.6
-7 6 -3 0.8 4.8
-7 6 -3 2.4 3.6
7 -6 3 -0.5 5.7
7 -6 3 -17.3 11
-8 6 -3 35.5 6.4
-8 6 -3 37.3 6.6
-8 6 -3 43.7 6.3
8 -6 3 39.1 15.6
8 -6 3 21 7.7
-9 6 -3 18.2 6.2
9 -6 3 -15.5 17.8
7 5 -3 -28.7 21.7
7 5 -3 -19 23
-7 -5 3 11.9 9.5
6 5 -3 -2.8 17.3
6 5 -3 9 18
-6 -5 3 4.3 8
5 5 -3 33 18.9
5 5 -3 18.6 13.6
-5 -5 3 21.3 3.9
-5 -5 3 17.2 7
4 5 -3 46.4 13.3
4 5 -3 54.19 13
-4 -5 3 45.6 5.3
-4 -5 3 45.6 7.6
-4 -5 3 55.09 7.9
3 5 -3 9.3 4.2
3 5 -3 0.9 7.9
3 5 -3 10.8 9.4
3 5 -3 17.5 3.6
-3 -5 3 10.4 2.7
-3 -5 3 8.3 4.8
-3 -5 3 8.8 4.1
2 5 -3 17.2 3.5
2 5 -3 41.3 9.2
2 5 -3 18.4 6.9
2 5 -3 23.8 4.6
2 5 -3 28.1 4
-2 -5 3 22.8 4.3
-2 -5 3 27.7 5
-2 -5 3 30.5 5.1
-2 -5 3 27.7 4.1
1 5 -3 130.79 10.9
1 5 -3 134.69 8
1 5 -3 127.89 6.8
1 5 -3 116.89 8.2
1 5 -3 123.39 10.9
1 5 -3 130.39 7.8
1 5 -3 143.69 11.5
-1 -5 3 148.59 7.5
-1 -5 3 139.69 7.6
-1 -5 3 130.89 6.3
-1 -5 3 131.79 8.6
-1 -5 3 127.99 8
0 5 -3 53.79 7.7
0 5 -3 63.19 7.6
0 5 -3 49 5
0 5 -3 49.5 7.2
0 5 -3 44.2 5.8
0 5 -3 43.8 5
0 5 -3 50.29 4.5
0 -5 3 60.89 4.7
0 -5 3 50.19 6.1
0 -5 3 50.39 4
0 -5 3 42.6 5.3
0 -5 3 52.79 4.6
-1 5 -3 413.16 14.3
-1 5 -3 415.86 13.2
-1 5 -3 404.66 16.2
-1 5 -3 398.26 16.6
1 -5 3 408.56 15.7
1 -5 3 421.36 16.1
-2 5 -3 124.69 6.5
-2 5 -3 113.99 5.3
-2 5 -3 121.39 9.4
2 -5 3 116.89 9
2 -5 3 123.39 7.6
-3 5 -3 81.69 11.3
-3 5 -3 111.99 6.1
3 -5 3 108.89 9.5
3 -5 3 98.49 7.3
-4 5 -3 70.89 5.5
4 -5 3 65.09 6.9
4 -5 3 68.69 9.8
4 -5 3 68.79 8
-5 5 -3 0.7 2.9
-5 5 -3 -0.5 2.8
5 -5 3 -5.6 3.9
5 -5 3 1.9 6.7
-6 5 -3 211.68 12
-6 5 -3 185.28 10
-6 5 -3 192.88 9.9
6 -5 3 198.18 17.6
6 -5 3 195.88 12.2
-7 5 -3 79.69 7.9
-7 5 -3 83.29 8.3
-7 5 -3 87.09 8.8
7 -5 3 92.69 15.4
7 -5 3 98.29 10.1
-8 5 -3 147.19 11.2
-8 5 -3 152.48 10.3
-8 5 -3 147.89 11.3
8 -5 3 135.69 12.6
8 -5 3 149.09 25.4
-9 5 -3 31.1 6.5
-9 5 -3 22.7 7.3
9 -5 3 43.3 18.6
8 4 -3 22.2 26
8 4 -3 36.1 25.6
7 4 -3 6.4 19.8
7 4 -3 29.2 23.3
-7 -4 3 -7.3 8.1
6 4 -3 26.2 17.9
6 4 -3 19.6 16.5
-6 -4 3 18.3 4
-6 -4 3 30.9 7.9
5 4 -3 144.59 20.8
5 4 -3 169.58 21.3
-5 -4 3 147.89 8
-5 -4 3 151.68 11
4 4 -3 25.5 10.4
4 4 -3 24.1 9.7
-4 -4 3 33.9 5.9
-4 -4 3 30.4 3.6
-4 -4 3 36.7 6.7
3 4 -3 77.99 11.9
3 4 -3 71.09 5.4
3 4 -3 70.99 5.1
3 4 -3 81.19 11.9
-3 -4 3 71.29 4.9
-3 -4 3 77.49 7
-3 -4 3 76.79 6.2
2 4 -3 213.18 8.5
2 4 -3 194.18 7.8
2 4 -3 199.88 14.3
2 4 -3 211.78 8.8
2 4 -3 206.78 13.1
2 4 -3 198.18 11.3
-2 -4 3 194.08 7.8
-2 -4 3 192.48 9.5
-2 -4 3 201.38 9.3
-2 -4 3 181.38 8.7
1 4 -3 159.58 7.5
1 4 -3 161.78 6.7
1 4 -3 177.68 10.4
1 4 -3 166.78 10.6
1 4 -3 162.78 7.6
1 4 -3 162.98 11.2
1 4 -3 170.98 8.6
1 4 -3 159.28 7.4
-1 -4 3 169.98 7.9
-1 -4 3 133.29 7.2
-1 -4 3 160.28 8.4
-1 -4 3 169.78 7.8
-1 -4 3 167.18 6.8
0 4 -3 125.09 8
0 4 -3 130.89 5.9
0 4 -3 128.19 6.8
0 4 -3 133.09 7.6
0 4 -3 124.49 5.9
0 4 -3 138.29 6.9
0 4 -3 129.29 8.6
0 4 -3 126.59 5.6
0 -4 3 133.99 7
0 -4 3 137.09 5.9
0 -4 3 122.69 5.7
0 -4 3 121.49 6.8
-1 4 -3 87.39 5.1
-1 4 -3 93.89 6.6
-1 4 -3 87.29 4.7
-1 4 -3 96.79 5.8
-1 4 -3 90.59 6.7
-1 4 -3 93.89 4.6
1 -4 3 101.79 6.6
1 -4 3 90.09 4.8
1 -4 3 89.19 5.9
1 -4 3 91.59 6.6
-2 4 -3 45.4 4
-2 4 -3 48.7 6.5
-2 4 -3 44 5
-2 4 -3 50.89 4.1
2 -4 3 41.4 5.4
2 -4 3 45.5 5.6
2 -4 3 57.29 6.2
2 -4 3 55.49 5
-3 4 -3 5 1.9
-3 4 -3 -1.1 4.9
-3 4 -3 3.1 3
3 -4 3 2.6 3.9
3 -4 3 7.6 3.8
3 -4 3 -0.8 2.8
-4 4 -3 13.2 2.7
-4 4 -3 16.9 3.8
4 -4 3 12.6 5.9
4 -4 3 7.2 5.5
4 -4 3 14.8 3.6
-5 4 -3 90.99 6.7
-5 4 -3 103.39 6.4
5 -4 3 107.89 7.8
5 -4 3 71.39 9.9
5 -4 3 101.69 12.9
-6 4 -3 44.4 6.1
-6 4 -3 40.9 5.8
6 -4 3 54.99 6.4
6 -4 3 61.49 11.9
-7 4 -3 28.4 4.5
-7 4 -3 37.5 6.5
-7 4 -3 29.3 5.3
7 -4 3 28 5.7
7 -4 3 27.3 11.4
-8 4 -3 69.59 8.6
-8 4 -3 65.09 8.6
-8 4 -3 63.29 7.9
8 -4 3 67.39 9
8 -4 3 78.19 17.7
-9 4 -3 15.8 8
-9 4 -3 17 6.2
9 -4 3 8 18.7
8 3 -3 -12.1 22
-8 -3 3 -5.2 9.1
7 3 -3 23.9 17.9
7 3 -3 8.9 17.1
-7 -3 3 5.3 7.5
-7 -3 3 4.3 4.5
6 3 -3 145.49 21.9
6 3 -3 114.99 18.4
-6 -3 3 122.99 11.5
-6 -3 3 131.49 8
5 3 -3 23.3 9.7
5 3 -3 17.9 11.1
-5 -3 3 15.9 3.2
-5 -3 3 18.8 5.2
4 3 -3 -1 2.5
4 3 -3 -0.4 6.5
4 3 -3 5.6 8.1
-4 -3 3 7.1 3.8
-4 -3 3 4.7 2.4
3 3 -3 57.49 4.3
3 3 -3 81.29 9.8
3 3 -3 64.89 9.9
-3 -3 3 56.49 5.8
-3 -3 3 56.19 5.2
-3 -3 3 67.09 4.4
2 3 -3 540.55 17.8
2 3 -3 556.24 18.5
2 3 -3 545.65 22.2
2 3 -3 520.15 16.2
2 3 -3 539.35 16.5
2 3 -3 544.25 21.2
2 3 -3 527.45 17.7
-2 -3 3 535.45 17.8
-2 -3 3 539.25 19.8
-2 -3 3 565.44 16.4
-2 -3 3 541.35 18.1
1 3 -3 6.7 3.9
1 3 -3 7.9 2.4
1 3 -3 11.4 1.7
1 3 -3 10.9 4
1 3 -3 10.6 3.2
1 3 -3 8 2
1 3 -3 8.3 2.1
1 3 -3 12.6 2.4
-1 -3 3 7.2 2.3
-1 -3 3 14.6 2.4
-1 -3 3 14.6 2.1
-1 -3 3 10.9 2.4
-1 -3 3 10.2 2.1
0 3 -3 268.57 9.9
0 3 -3 263.07 8.7
0 3 -3 256.17 9.5
0 3 -3 258.27 9
0 3 -3 253.37 11.2
0 -3 3 268.17 9.6
0 -3 3 266.27 9.4
0 -3 3 254.27 8.7
0 -3 3 257.77 10.9
0 -3 3 250.97 8.7
-1 3 -3 997.6 29.8
-1 3 -3 961.4 28.3
-1 3 -3 1010.5 29.4
-1 3 -3 1011.6 28.9
-1 3 -3 932.71 27.6
1 -3 3 988.2 29
1 -3 3 989.7 27.8
1 -3 3 1000.4 30
1 -3 3 994.2 29
-2 3 -3 40.8 5.6
-2 3 -3 44.2 3.2
-2 3 -3 45.3 3.6
-2 3 -3 50.69 5.7
-2 3 -3 42.3 3.9
2 -3 3 51.29 5.1
2 -3 3 41.1 4.1
2 -3 3 42.1 4
2 -3 3 43.5 5.2
-3 3 -3 186.48 7.5
-3 3 -3 170.98 11.5
-3 3 -3 193.08 8.5
-3 3 -3 200.78 7.6
-3 3 -3 195.98 8.6
3 -3 3 195.98 11.5
3 -3 3 204.88 8.8
3 -3 3 183.48 9.9
3 -3 3 179.88 8
-4 3 -3 112.39 5.7
-4 3 -3 118.59 7.1
-4 3 -3 102.29 6.7
4 -3 3 104.99 10.4
4 -3 3 100.49 8.1
4 -3 3 101.99 6.7
-5 3 -3 22.3 4.8
-5 3 -3 11.8 2.7
-5 3 -3 11.3 4.4
5 -3 3 5.8 3.6
5 -3 3 10.4 7.3
-6 3 -3 1.2 3.9
-6 3 -3 4.5 2.9
6 -3 3 4.4 8.9
6 -3 3 -0.4 3.9
-7 3 -3 299.87 12.7
-7 3 -3 318.87 14.6
7 -3 3 313.07 14.3
7 -3 3 321.17 26.7
-8 3 -3 15 6.6
-8 3 -3 18.1 4.7
8 -3 3 11.1 15.3
-9 3 -3 3.9 8.2
9 -3 3 1.6 19.1
9 2 -3 77.89 27.5
9 2 -3 67.59 26.2
8 2 -3 19.2 22.1
8 2 -3 28.5 19.5
7 2 -3 7.3 15.9
7 2 -3 0.9 15.5
-7 -2 3 -6.5 4
-7 -2 3 4.4 6.5
6 2 -3 28.7 12
6 2 -3 33.8 13.4
-6 -2 3 22 3.7
-6 -2 3 23.8 5.9
5 2 -3 9.8 10.5
5 2 -3 5.2 8.3
-5 -2 3 -0.8 2.6
-5 -2 3 3.6 4
4 2 -3 1.3 2.2
4 2 -3 8.7 6.3
4 2 -3 15.6 7.8
-4 -2 3 6.4 2.2
-4 -2 3 9.8 3.3
3 2 -3 1.7 5.2
3 2 -3 -2.2 3.8
3 2 -3 -1.7 1.7
-3 -2 3 0.3 1.6
-3 -2 3 -2.7 2.1
-3 -2 3 2.5 4.7
2 2 -3 393.46 11.6
2 2 -3 377.86 13
2 2 -3 371.86 13.2
2 2 -3 376.16 11.7
2 2 -3 370.66 16.8
2 2 -3 368.66 12.8
2 2 -3 347.57 15.2
-2 -2 3 378.76 11.8
-2 -2 3 383.76 12.9
-2 -2 3 368.06 14.8
-2 -2 3 380.76 11.6
-2 -2 3 373.36 15.8
1 2 -3 12.6 1.8
1 2 -3 17.3 2.3
1 2 -3 14.4 2.3
1 2 -3 15.1 2.6
1 2 -3 11.9 3.7
1 2 -3 15.9 3.4
1 2 -3 12.9 2.6
1 2 -3 14.6 2.3
-1 -2 3 15 2.3
-1 -2 3 15.9 2.1
-1 -2 3 13.1 2.4
-1 -2 3 12.2 3.4
-1 -2 3 12.4 1.8
0 2 -3 20.8 3.7
0 2 -3 18.4 2.4
0 2 -3 20.5 1.9
0 2 -3 28.2 2.7
0 -2 3 19.4 2.2
0 -2 3 21 2
0 -2 3 23.6 3.7
-1 2 -3 1314.07 36.6
-1 2 -3 1347.67 37
-1 2 -3 1301.77 37.9
-1 2 -3 1283.97 37
-1 2 -3 1358.16 36
1 -2 3 1303.47 35.9
1 -2 3 1310.57 38.2
1 -2 3 1330.27 36.9
1 -2 3 1336.17 36.9
-2 2 -3 73.79 4.5
-2 2 -3 75.09 3.7
-2 2 -3 74.59 4.1
-2 2 -3 80.19 6.5
-2 2 -3 77.49 5.9
2 -2 3 76.89 4.5
2 -2 3 84.09 6.1
2 -2 3 79.69 4.4
2 -2 3 85.19 6.4
-3 2 -3 0.2 2.1
-3 2 -3 1.9 1.5
-3 2 -3 3.1 1.5
-3 2 -3 1.2 4.2
-3 2 -3 2.4 2.6
3 -2 3 4.1 3.1
3 -2 3 1.2 4
3 -2 3 2.4 1.7
3 -2 3 5.3 2.2
-4 2 -3 58.29 4.1
-4 2 -3 44 5.2
-4 2 -3 49 4.8
4 -2 3 55.09 6.8
4 -2 3 65.79 9.8
4 -2 3 45.9 4
4 -2 3 59.89 4.9
-5 2 -3 -1.4 3.2
-5 2 -3 4.5 3.6
-5 2 -3 6.9 2.3
5 -2 3 1.7 2.8
5 -2 3 2.1 7.2
5 -2 3 -3.9 3.3
-6 2 -3 34.7 6.1
-6 2 -3 22.3 4.6
-6 2 -3 35.8 4.1
6 -2 3 25.8 11
6 -2 3 31.7 10.9
-7 2 -3 41.6 6
-7 2 -3 39.3 6.5
7 -2 3 58.79 13.6
7 -2 3 46.4 14.5
-8 2 -3 -2.3 6.8
-8 2 -3 0.2 4.1
8 -2 3 -7.5 14
8 -2 3 17.4 15.6
-9 2 -3 -8.1 8.1
9 -2 3 5.6 20.1
9 -2 3 9.2 19.9
9 1 -3 22 22.3
9 1 -3 37.5 23.7
8 1 -3 23.4 18.7
8 1 -3 54.49 18.9
-8 -1 3 35.9 8.8
7 1 -3 67.99 16.7
7 1 -3 55.79 17.5
-7 -1 3 62.39 7.2
-7 -1 3 69.99 9.7
6 1 -3 9.9 9.8
6 1 -3 -2.4 10.5
-6 -1 3 4.3 4.2
-6 -1 3 -0.7 3
5 1 -3 25.5 8.4
5 1 -3 6.2 8.4
-5 -1 3 17.7 3.9
-5 -1 3 11.3 2.7
4 1 -3 216.48 15.3
4 1 -3 216.08 8.2
4 1 -3 206.48 14.7
-4 -1 3 191.18 8
-4 -1 3 210.98 9.7
3 1 -3 21.7 3.4
3 1 -3 26 4
3 1 -3 29.2 5.6
3 1 -3 23.6 2.9
3 1 -3 25.3 6.2
-3 -1 3 21.4 5
-3 -1 3 32.2 3
-3 -1 3 18.7 5.5
-3 -1 3 27.3 3.2
2 1 -3 337.87 11.4
2 1 -3 350.16 13.7
2 1 -3 344.57 10.7
2 1 -3 339.17 13.7
2 1 -3 345.67 15.4
-2 -1 3 349.27 10.8
-2 -1 3 327.87 14.5
-2 -1 3 349.87 13.6
-2 -1 3 332.37 11.4
1 1 -3 148.19 5.4
1 1 -3 154.28 5.3
1 1 -3 143.29 7.8
1 1 -3 147.09 7.4
1 1 -3 141.59 6.1
1 1 -3 153.18 5.8
-1 -1 3 145.59 7.7
-1 -1 3 144.79 6.2
-1 -1 3 135.29 7.1
-1 -1 3 148.79 5.3
-1 -1 3 149.69 5.4
0 1 -3 76.39 4.3
0 1 -3 72.49 3.5
0 1 -3 72.09 3.1
0 1 -3 79.69 4.8
0 -1 3 71.59 3.5
0 -1 3 78.19 4.5
0 -1 3 77.69 3.1
0 -1 3 67.59 4.7
-1 1 -3 551.14 17.1
-1 1 -3 552.44 15.7
-1 1 -3 545.65 16.7
-1 1 -3 577.54 18.5
1 -1 3 562.84 15.7
1 -1 3 565.64 16.7
1 -1 3 544.85 17.1
1 -1 3 582.34 18.6
-2 1 -3 90.29 3.6
-2 1 -3 88.89 4.5
-2 1 -3 82.29 5.6
-2 1 -3 88.49 6.6
-2 1 -3 89.69 3.9
2 -1 3 90.39 4.2
2 -1 3 90.29 4.6
2 -1 3 90.99 6.1
2 -1 3 90.29 6.6
-3 1 -3 58.39 4.2
-3 1 -3 55.89 4.9
-3 1 -3 56.49 3.1
-3 1 -3 70.59 8
-3 1 -3 57.69 3.1
-3 1 -3 53.69 3.9
3 -1 3 56.99 4.2
3 -1 3 66.89 8.1
3 -1 3 46.3 3.3
3 -1 3 52.29 5.4
-4 1 -3 1 3.1
-4 1 -3 5.9 2.3
-4 1 -3 4.2 3
-4 1 -3 2.2 1.6
4 -1 3 3.5 3.2
4 -1 3 2.7 5.2
4 -1 3 -1.6 2.3
4 -1 3 1 5.7
4 -1 3 -1 1.7
-5 1 -3 4.5 2.2
-5 1 -3 6.7 4
-5 1 -3 5.8 4
5 -1 3 3.7 7
5 -1 3 2.2 2.2
5 -1 3 7.1 7.8
-6 1 -3 1.5 2.6
-6 1 -3 4.8 4.6
6 -1 3 0.1 3.3
6 -1 3 5.7 10
6 -1 3 8.9 9.9
-7 1 -3 13.9 3.7
-7 1 -3 23.5 6
7 -1 3 25.2 13.6
7 -1 3 28.2 15.4
-8 1 -3 4.1 6.8
8 -1 3 28.6 18.2
8 -1 3 -1.3 16.9
-9 1 -3 6.3 9.1
9 -1 3 32.8 21.4
9 -1 3 6.4 22
9 0 -3 48.7 21.4
9 0 -3 103.99 23.9
-9 0 3 70.09 11.3
-9 0 3 51.59 7.1
8 0 -3 20.5 16.7
8 0 -3 7.9 15.8
-8 0 3 13.2 5
-8 0 3 18.6 7.2
7 0 -3 -2.7 11.9
7 0 -3 14.5 12.2
-7 0 3 5 3.9
-7 0 3 5 5.2
6 0 -3 29.2 10.4
6 0 -3 33.4 11
-6 0 3 22.6 3.4
-6 0 3 33.3 6
5 0 -3 12.6 7.4
5 0 -3 -7.9 7.1
-5 0 3 6.3 3.1
-5 0 3 4 2.3
4 0 -3 13.5 2.2
4 0 -3 10.3 5.1
4 0 -3 10.4 6
4 0 -3 11.8 3.4
-4 0 3 11 2.2
-4 0 3 14 2.8
3 0 -3 42.5 7.5
3 0 -3 32.3 5.7
3 0 -3 29.6 3
3 0 -3 26.2 3.1
-3 0 3 21.2 4.6
-3 0 3 28.4 2.8
-3 0 3 22.7 5.1
-3 0 3 24.1 2.8
2 0 -3 17.2 3.4
2 0 -3 21 3.6
2 0 -3 23.4 4.5
2 0 -3 19.1 2.2
2 0 -3 20.8 2.1
2 0 -3 19.9 2
-2 0 3 19.2 1.9
-2 0 3 20.8 2.3
-2 0 3 18.9 3.4
-2 0 3 20 2
-2 0 3 23.3 4.4
1 0 -3 143.59 7.1
1 0 -3 135.49 6.6
1 0 -3 134.99 4.8
1 0 -3 136.89 5.1
1 0 -3 128.99 5.6
-1 0 3 139.49 5.1
-1 0 3 130.29 5.8
-1 0 3 137.89 6.6
-1 0 3 136.99 4.8
-1 0 3 132.89 7.2
0 0 -3 1712.53 47.1
0 0 -3 1729.53 44.9
0 0 -3 1705.93 45.7
0 0 -3 1622.94 46.5
0 0 -3 1679.13 44.8
0 0 3 1730.03 45
0 0 3 1618.54 44.8
0 0 3 1697.13 45.8
0 0 3 1744.23 47
0 0 3 1671.03 47.1
-1 0 -3 755.12 22.1
-1 0 -3 734.23 23.2
-1 0 -3 753.62 20.8
-1 0 -3 758.72 22.4
-1 0 -3 783.72 23.2
1 0 3 791.22 23.7
1 0 3 783.22 22.2
1 0 3 777.32 20.8
1 0 3 784.32 22.2
1 0 3 805.02 24.1
1 0 3 774.62 22.8
-2 0 -3 5.7 2.7
-2 0 -3 -0.5 1.7
-2 0 -3 1.6 1.5
-2 0 -3 0.9 1.7
2 0 3 2.7 2.7
2 0 3 0 2
2 0 3 4.2 1.6
2 0 3 -2 2.5
-3 0 -3 291.37 10.2
-3 0 -3 289.57 11.6
-3 0 -3 303.27 11
-3 0 -3 279.87 14.5
3 0 3 276.07 12.3
3 0 3 312.87 15.4
3 0 3 302.87 10.3
3 0 3 296.17 11.1
-4 0 -3 202.88 10
-4 0 -3 200.28 8.2
-4 0 -3 188.88 9.3
4 0 3 204.88 14.8
4 0 3 215.78 8.3
-5 0 -3 161.08 9.7
-5 0 -3 154.38 9.6
5 0 3 142.89 16.8
5 0 3 149.99 14.5
-6 0 -3 388.26 17.1
-6 0 -3 372.46 16.9
6 0 3 368.26 23.9
6 0 3 381.46 26.7
-7 0 -3 3.9 6.8
7 0 3 2 16.7
7 0 3 8.5 13.8
-8 0 -3 1.2 7.7
8 0 3 -8.5 19
8 0 3 12.4 19.7
-9 0 -3 4.7 9.8
9 0 3 -4.6 23.2
9 0 3 6 24.6
10 -1 -3 9.1 23.5
10 -1 -3 25.8 24.2
-10 1 3 3.2 10
9 -1 -3 -16.6 18.5
9 -1 -3 -19.3 19.5
-9 1 3 0.2 7.5
-9 1 3 4.3 6
8 -1 -3 -5.4 14.5
8 -1 -3 -19.5 14
-8 1 3 3.2 5.8
-8 1 3 -4.5 4.4
7 -1 -3 22.8 11.7
7 -1 -3 26.2 12.1
-7 1 3 24 5.2
-7 1 3 13.9 4
6 -1 -3 88.29 15.1
6 -1 -3 78.49 13.1
-6 1 3 71.29 5.9
-6 1 3 74.89 6.6
5 -1 -3 17.5 6.9
5 -1 -3 12.8 7.7
-5 1 3 9.8 3.1
-5 1 3 13.2 2.9
4 -1 -3 707.13 27.8
4 -1 -3 730.33 22.2
4 -1 -3 721.33 21.7
4 -1 -3 764.62 28.7
-4 1 3 747.43 22
-4 1 3 748.63 22.4
-4 1 3 670.93 28.1
3 -1 -3 224.88 8.2
3 -1 -3 227.58 8.1
3 -1 -3 221.88 7.7
3 -1 -3 220.58 10.2
3 -1 -3 241.68 12.2
3 -1 -3 242.38 13
-3 1 3 227.68 8.3
-3 1 3 241.18 12.8
-3 1 3 226.28 11.9
-3 1 3 222.78 8.3
-3 1 3 227.08 7.8
2 -1 -3 -0.7 2
2 -1 -3 -0.2 1.2
2 -1 -3 0.7 2.1
2 -1 -3 -0.1 1.1
2 -1 -3 0.9 1.2
2 -1 -3 1.8 2.8
-2 1 3 -0.4 2.4
-2 1 3 3.4 3.3
-2 1 3 -0.5 1.1
-2 1 3 5.3 2.2
-2 1 3 -0.8 1
1 -1 -3 627.44 20.3
1 -1 -3 597.34 17.8
1 -1 -3 598.74 18.8
1 -1 -3 604.44 17.3
1 -1 -3 624.14 19
-1 1 3 596.74 20.2
-1 1 3 615.74 18
-1 1 3 617.04 17.4
-1 1 3 624.74 19.2
-1 1 3 615.24 18.9
0 -1 -3 6.8 1.9
0 -1 -3 6.2 4.2
0 -1 -3 5.8 1.4
0 -1 -3 6 1
0 -1 -3 10.3 3.7
0 1 3 13.8 3.8
0 1 3 6.5 2
0 1 3 6 0.9
0 1 3 13.3 3.9
0 1 3 2.8 1.3
-1 -1 -3 261.57 9.5
-1 -1 -3 245.48 8.6
-1 -1 -3 251.27 9.6
-1 -1 -3 244.08 9.5
1 1 3 241.88 9.9
1 1 3 243.98 10
1 1 3 249.68 10.6
1 1 3 249.78 8.7
1 1 3 258.37 9.6
-2 -1 -3 455.05 17.9
-2 -1 -3 481.15 14.7
-2 -1 -3 475.15 15.6
-2 -1 -3 471.55 16
2 1 3 472.05 18.9
2 1 3 467.85 16.4
2 1 3 482.15 15.9
2 1 3 475.25 14.8
2 1 3 456.25 16.2
-3 -1 -3 1.9 2.6
-3 -1 -3 7.4 2.1
-3 -1 -3 5.9 3.2
3 1 3 4.1 3.7
3 1 3 3.1 4.8
3 1 3 6.9 2.3
-4 -1 -3 3.5 3.3
-4 -1 -3 5.4 3.6
4 1 3 -1 5.9
-5 -1 -3 78.29 7.8
-5 -1 -3 69.59 8.3
5 1 3 71.49 13
5 1 3 80.59 12.2
-6 -1 -3 19.9 6.9
-6 -1 -3 30.2 6.3
6 1 3 25.7 11.5
6 1 3 18.1 12.4
-7 -1 -3 24.1 7.1
-7 -1 -3 25.7 9.1
7 1 3 16.1 16.5
7 1 3 6.7 14.1
8 1 3 20.5 21.8
8 1 3 20.4 21.4
-9 -1 -3 -0.6 11.7
9 1 3 -0.3 24.4
9 1 3 19.5 27.1
10 -2 -3 -2.3 21.6
10 -2 -3 20 23.1
-10 2 3 7.1 8
-10 2 3 -1.6 9.6
9 -2 -3 -21.7 17.2
9 -2 -3 -10.7 18.2
-9 2 3 -15 6
-9 2 3 8.5 7.2
8 -2 -3 52.39 15.7
8 -2 -3 34.4 14.9
-8 2 3 45.1 7
-8 2 3 40.4 5.5
7 -2 -3 107.19 18.5
7 -2 -3 118.29 16.7
-7 2 3 107.39 8.2
-7 2 3 108.49 8.4
6 -2 -3 140.19 16.1
6 -2 -3 140.69 16.4
-6 2 3 146.99 8.1
-6 2 3 144.99 8.2
5 -2 -3 172.18 13.7
5 -2 -3 155.88 14
5 -2 -3 133.79 7.3
-5 2 3 146.59 7.2
-5 2 3 148.49 7.5
4 -2 -3 29.7 6.7
4 -2 -3 12.8 5.5
4 -2 -3 33.5 3.6
4 -2 -3 27.5 3.2
-4 2 3 28.4 3.5
-4 2 3 24.5 6.9
-4 2 3 26.8 3.2
-4 2 3 32.1 3.7
-4 2 3 27.7 3.1
3 -2 -3 5.2 1.6
3 -2 -3 9 1.9
3 -2 -3 4.8 3.3
3 -2 -3 6.7 1.5
3 -2 -3 6.3 4.1
3 -2 -3 6.9 2.9
-3 2 3 8.9 1.8
-3 2 3 6.7 1.8
-3 2 3 5.7 4.5
-3 2 3 8.7 1.7
-3 2 3 9.2 4.1
2 -2 -3 -0.3 2.4
2 -2 -3 1.7 1.2
2 -2 -3 4.1 1.2
2 -2 -3 4.3 3.2
2 -2 -3 1.7 1.5
-2 2 3 -5.2 2.8
-2 2 3 1.5 1.2
-2 2 3 2.3 3.1
-2 2 3 2.9 1.4
1 -2 -3 962 29.9
1 -2 -3 1001.6 27.9
1 -2 -3 1015.1 29.7
1 -2 -3 946.51 26.8
1 -2 -3 950.3 27.8
-1 2 3 972.7 26.9
-1 2 3 952.9 30.1
-1 2 3 963.9 27.9
-1 2 3 988.8 29.7
-1 2 3 1025.6 28.3
0 -2 -3 27.9 5.1
0 -2 -3 35.1 3
0 -2 -3 23.7 3.3
0 -2 -3 29.9 3.7
0 -2 -3 33.5 2
0 2 3 32.5 4.3
0 2 3 38.3 4.2
0 2 3 30.9 1.9
0 2 3 32.9 2.9
0 2 3 47.4 5.6
-1 -2 -3 275.77 9.7
-1 -2 -3 268.67 10.3
-1 -2 -3 286.17 11
-1 -2 -3 284.87 11.3
1 2 3 281.47 12.8
1 2 3 285.67 10.1
1 2 3 268.07 11.1
1 2 3 277.17 11.4
1 2 3 276.67 10.8
-2 -2 -3 985.9 29.6
-2 -2 -3 982 28
-2 -2 -3 899.71 32.1
-2 -2 -3 1002 29.5
2 2 3 948.41 29.9
2 2 3 1006 28.4
2 2 3 954.7 30
2 2 3 995.6 33.6
2 2 3 986.1 30.8
-3 -2 -3 78.19 6.1
-3 -2 -3 73.19 5
-3 -2 -3 81.79 6.4
3 2 3 79.09 5.6
3 2 3 90.59 10.7
-4 -2 -3 -4.3 3.5
-4 -2 -3 0.5 4.1
4 2 3 5.1 8.1
-5 -2 -3 9.5 5.5
-5 -2 -3 6.5 4.6
5 2 3 9.4 9.1
5 2 3 -6.8 9.1
-6 -2 -3 -2.3 7.1
-6 -2 -3 -0.3 6.7
6 2 3 11.7 12
6 2 3 1.5 13.1
-7 -2 -3 24.9 8.6
-7 -2 -3 28.4 9.8
7 2 3 27.9 18.9
7 2 3 14.9 16.2
-8 -2 -3 3.8 9.3
8 2 3 -19.1 21
8 2 3 5.9 23.4
10 -3 -3 -3.7 20.7
10 -3 -3 0.2 23.4
-10 3 3 0.7 7.7
-10 3 3 22.2 10
9 -3 -3 8.5 17.8
9 -3 -3 33.4 17.7
-9 3 3 16 6.6
-9 3 3 9.1 7
8 -3 -3 135.19 21.2
8 -3 -3 118.69 21.6
-8 3 3 125.39 9.4
-8 3 3 115.49 10.2
7 -3 -3 50.39 12.8
7 -3 -3 76.29 13.1
-7 3 3 60.79 6.3
-7 3 3 63.79 7.2
6 -3 -3 15.2 8.6
6 -3 -3 3.7 7.4
-6 3 3 7.8 2.8
-6 3 3 8.7 3.3
-6 3 3 3.6 2.9
-6 3 3 1.2 3
5 -3 -3 253.07 9.8
5 -3 -3 275.17 16.9
5 -3 -3 280.97 16.7
-5 3 3 256.67 10.8
-5 3 3 286.17 10.7
-5 3 3 262.97 10
-5 3 3 264.17 10.8
4 -3 -3 165.98 12
4 -3 -3 153.68 11.6
4 -3 -3 165.48 7.8
-4 3 3 144.59 12.1
-4 3 3 175.48 7.7
-4 3 3 172.18 8.3
-4 3 3 167.68 7.7
3 -3 -3 78.29 7.8
3 -3 -3 74.19 7.6
3 -3 -3 68.39 4.5
3 -3 -3 64.19 4.8
-3 3 3 66.79 7.8
-3 3 3 71.29 4.3
-3 3 3 64.39 8.7
-3 3 3 68.49 4.7
2 -3 -3 53.59 3.5
2 -3 -3 58.59 4.4
2 -3 -3 68.19 6.9
2 -3 -3 60.09 7.4
-2 3 3 57.29 4.1
-2 3 3 53.99 6.8
-2 3 3 53.49 6.6
-2 3 3 57.89 3.7
1 -3 -3 488.95 14.6
1 -3 -3 498.35 18
1 -3 -3 496.15 14.8
1 -3 -3 482.95 15.8
1 -3 -3 519.95 18.1
-1 3 3 466.65 17.9
-1 3 3 499.35 14.7
-1 3 3 480.05 18
-1 3 3 489.45 16
0 -3 -3 28.1 4.7
0 -3 -3 26.3 3.2
0 -3 -3 20.8 4.3
0 -3 -3 23.4 2.3
0 -3 -3 20 2.8
0 3 3 19 3.4
0 3 3 28 3.5
0 3 3 18.5 3.5
0 3 3 18.3 4.1
0 3 3 21.8 2.1
-1 -3 -3 924.31 28.5
-1 -3 -3 921.91 26.8
-1 -3 -3 894.11 27.7
-1 -3 -3 896.21 26.3
1 3 3 893.81 26.5
1 3 3 887.91 27.1
1 3 3 823.72 28.2
1 3 3 824.32 28.2
1 3 3 905.41 30.4
-2 -3 -3 593.94 18.8
-2 -3 -3 598.94 21.7
-2 -3 -3 596.04 20
-2 -3 -3 613.14 20.7
2 3 3 564.34 24.4
2 3 3 619.94 19.4
-3 -3 -3 27.6 3.7
-3 -3 -3 29.9 5.3
-3 -3 -3 30.6 5.4
3 3 3 33 8
3 3 3 43.1 5.5
-4 -3 -3 36 6.1
-4 -3 -3 41.4 6.8
4 3 3 42.8 6.5
4 3 3 40 11.1
-5 -3 -3 115.29 11
-5 -3 -3 119.79 10.7
5 3 3 123.49 19.4
5 3 3 104.69 17.3
-6 -3 -3 19.7 8.6
-6 -3 -3 6.9 6.8
6 3 3 10.5 13.9
6 3 3 -13.1 15.5
-7 -3 -3 17.8 10.7
-7 -3 -3 11.9 9
7 3 3 -3.8 18
7 3 3 -13.3 21.1
-8 -3 -3 10.3 11.3
-8 -3 -3 7 11.9
8 3 3 28.5 23.6
8 3 3 -33.1 27.2
10 -4 -3 28.8 23.2
10 -4 -3 36.4 21.8
-10 4 3 18.9 8.4
9 -4 -3 44 18.5
9 -4 -3 18.3 16.9
-9 4 3 17.2 6.7
-9 4 3 32.6 6.6
8 -4 -3 0.3 13.3
8 -4 -3 7.5 12.2
-8 4 3 3.2 4.7
-8 4 3 6.4 5
7 -4 -3 19.6 10.6
7 -4 -3 4.3 9.5
-7 4 3 9 4
-7 4 3 10.2 3.7
-7 4 3 8.5 3.9
6 -4 -3 29.5 4.3
6 -4 -3 26.3 8.6
6 -4 -3 27.7 9.2
-6 4 3 31.4 4.6
-6 4 3 26.3 3.9
-6 4 3 21.1 3.9
5 -4 -3 127.39 12.7
5 -4 -3 116.29 12.7
-5 4 3 125.89 7.3
-5 4 3 115.89 6.9
4 -4 -3 142.79 11.1
4 -4 -3 137.79 11.5
-4 4 3 128.69 6.9
-4 4 3 128.29 13
-4 4 3 134.49 7.1
3 -4 -3 16.3 5.4
3 -4 -3 8.6 5.3
-3 4 3 10.3 2.2
-3 4 3 12.8 2.8
-3 4 3 19.3 5.4
2 -4 -3 254.37 13.6
2 -4 -3 293.77 13.9
-2 4 3 266.67 13.9
-2 4 3 284.97 9.8
-2 4 3 278.37 11
1 -4 -3 7.7 3.2
1 -4 -3 10.6 2.1
1 -4 -3 6.4 3.9
1 -4 -3 11.7 4.6
-1 4 3 8.6 2.5
-1 4 3 9.8 1.8
-1 4 3 8.5 5.2
-1 4 3 13 5.1
0 -4 -3 327.57 13.5
0 -4 -3 379.66 14.8
0 -4 -3 385.56 11.6
0 -4 -3 354.56 15.3
0 -4 -3 385.96 12.7
0 4 3 373.06 13.4
0 4 3 359.56 11.3
0 4 3 372.96 13.6
-1 -4 -3 210.08 11.1
-1 -4 -3 168.28 9.4
-1 -4 -3 192.98 8.8
-1 -4 -3 199.98 10.1
1 4 3 200.28 9.1
1 4 3 196.18 12.7
1 4 3 193.88 10.1
-2 -4 -3 28.6 5.2
-2 -4 -3 17 4.9
-2 -4 -3 42.5 6.4
-2 -4 -3 34 5.8
2 4 3 37.6 8.3
2 4 3 31.4 4.4
-3 -4 -3 53.89 7
-3 -4 -3 58.09 8.1
3 4 3 62.19 7
3 4 3 66.49 12.1
-4 -4 -3 11.5 5.4
-4 -4 -3 9.7 6.7
-4 -4 -3 5.7 5.7
4 4 3 -3.6 10.9
4 4 3 0.5 4.6
-5 -4 -3 16.6 8.3
-5 -4 -3 13.6 8.8
5 4 3 40.2 15.4
-6 -4 -3 37.7 9.2
-6 -4 -3 30 10.5
6 4 3 48.3 19.7
6 4 3 36.6 17.4
-7 -4 -3 4.9 11.7
-7 -4 -3 7.8 10.2
7 4 3 -17.5 24.2
7 4 3 18.3 21
10 -5 -3 34.3 22.5
-10 5 3 7.3 8.2
9 -5 -3 5.8 17
9 -5 -3 18.3 15.6
-9 5 3 9 6.3
8 -5 -3 -5.4 12.5
8 -5 -3 13 12.3
8 -5 -3 5.8 10.8
-8 5 3 11.8 5.5
-8 5 3 2.6 4.5
7 -5 -3 111.39 16.9
7 -5 -3 126.79 20.2
-7 5 3 142.49 9.5
-7 5 3 117.29 8.7
6 -5 -3 32 9
-6 5 3 41.7 5.7
-6 5 3 33.2 4.6
5 -5 -3 20.9 7.5
5 -5 -3 15.9 7.7
-5 5 3 17 3.6
4 -5 -3 -5.3 5.2
4 -5 -3 3.3 6.1
-4 5 3 1.3 2.3
-4 5 3 3.6 2.8
3 -5 -3 34.4 7
3 -5 -3 35.5 6.5
-3 5 3 34.5 4
-3 5 3 33.3 4.6
-3 5 3 26.1 8.4
2 -5 -3 856.21 31
2 -5 -3 906.31 29.3
-2 5 3 872.81 27.8
-2 5 3 883.01 26.1
1 -5 -3 201.48 8.2
1 -5 -3 196.88 11.6
1 -5 -3 200.38 11.4
-1 5 3 204.48 9.7
-1 5 3 201.98 7.9
0 -5 -3 -6 4
0 -5 -3 -6.9 3.8
0 -5 -3 -3.6 2.7
0 -5 -3 -1 2.6
0 5 3 1.1 4
0 5 3 3.3 1.9
0 5 3 4.3 3.1
-1 -5 -3 38.9 6.5
-1 -5 -3 29.3 5.4
-1 -5 -3 26.9 5.6
1 5 3 25.7 4.3
1 5 3 46.8 8.6
-2 -5 -3 9.3 5.9
-2 -5 -3 1.1 5
-2 -5 -3 5.2 4.1
2 5 3 6.8 7.6
2 5 3 1.6 3.8
-3 -5 -3 81.09 8.6
-3 -5 -3 71.19 9.7
3 5 3 68.99 13.2
3 5 3 63.49 8.6
-4 -5 -3 15.1 7.3
-4 -5 -3 10.7 6.2
4 5 3 16.9 14.4
-5 -5 -3 17.2 9.1
-5 -5 -3 3.5 7.9
5 5 3 -4.7 16.3
5 5 3 3.4 15.2
-6 -5 -3 8.8 11.3
-6 -5 -3 9.3 9.1
6 5 3 -9.5 18.5
6 5 3 36.9 24.4
-7 -5 -3 -9 11.5
-7 -5 -3 8.2 13.9
7 5 3 34.7 25.2
7 5 3 33.1 29.5
10 -6 -3 -43.4 21.6
-10 6 3 -3.9 8.1
9 -6 -3 -21.5 17.5
9 -6 -3 4.9 15.2
-9 6 3 3.9 7.2
8 -6 -3 23.2 14.8
8 -6 -3 -4.3 11.7
-8 6 3 2.5 5.3
-8 6 3 4.4 5.2
7 -6 -3 -10.8 11.1
7 -6 -3 -3.8 9.8
-7 6 3 -0.4 4.3
-7 6 3 -4.5 4.8
6 -6 -3 5 8.5
6 -6 -3 9.8 9.5
-6 6 3 26.8 4.7
-6 6 3 19.5 4.3
5 -6 -3 3 7.7
5 -6 -3 11.5 7.7
-5 6 3 12.1 4.1
-5 6 3 8.9 3.4
4 -6 -3 79.99 12.4
4 -6 -3 76.69 10.9
-4 6 3 64.29 6
-4 6 3 74.49 7.1
3 -6 -3 16.1 6.4
3 -6 -3 24.9 6.6
-3 6 3 34.8 5.4
-3 6 3 33.6 4.7
2 -6 -3 100.49 9.8
2 -6 -3 88.59 10.9
-2 6 3 92.39 7.1
-2 6 3 78.29 5.9
1 -6 -3 0 5.1
1 -6 -3 2.8 5.1
-1 6 3 -2.3 3.4
-1 6 3 0.8 2.5
0 -6 -3 4.8 5.7
0 -6 -3 -2.4 4.9
0 -6 -3 0.5 3.4
0 -6 -3 0.6 4
0 6 3 2 5.5
0 6 3 1.7 3.1
0 6 3 2.3 2.3
0 6 3 1.9 3.7
-1 -6 -3 114.09 8.2
-1 -6 -3 122.09 10.3
-1 -6 -3 115.69 11.5
1 6 3 140.39 14.9
1 6 3 122.59 9.1
-2 -6 -3 8.6 7.2
-2 -6 -3 -5.8 4.9
-2 -6 -3 -5.3 5.9
2 6 3 0.9 4.8
2 6 3 -6.3 9
-3 -6 -3 16.7 8
3 6 3 11.9 13.2
3 6 3 20.6 6.3
-4 -6 -3 1 8.1
-4 -6 -3 -1.1 7.8
4 6 3 21 16.9
4 6 3 -8.4 6.5
-5 -6 -3 3.8 9.2
-5 -6 -3 9.5 10.3
5 6 3 43 21.4
5 6 3 0.4 17.6
-6 -6 -3 -2.2 13.1
-6 -6 -3 0.4 11.3
6 6 3 -2.6 27
6 6 3 -25.4 22.6
9 -7 -3 15.6 18.9
8 -7 -3 16.5 16
-8 7 3 26 7.2
-8 7 3 8.5 6.6
7 -7 -3 1.6 12.2
7 -7 -3 -19.2 9.9
-7 7 3 -0.7 4.9
-7 7 3 3.5 5.2
6 -7 -3 -12.9 10.3
-6 7 3 -3.8 4.6
-6 7 3 -4.2 4.5
5 -7 -3 47.1 9.5
5 -7 -3 52.29 11.2
-5 7 3 52.69 7
-5 7 3 59.79 8
4 -7 -3 22.3 7.5
4 -7 -3 17.3 8
-4 7 3 9.9 4.6
-4 7 3 10.8 3.5
3 -7 -3 14.3 7.6
3 -7 -3 5.6 6.8
-3 7 3 6.2 3.8
-3 7 3 7.1 3.3
2 -7 -3 3.1 6
2 -7 -3 1.8 5.9
-2 7 3 -2.7 3.5
-2 7 3 3.5 3.3
1 -7 -3 0.9 6.2
1 -7 -3 3 6.1
-1 7 3 13.1 4.7
-1 7 3 12.1 3.3
0 -7 -3 83.59 12.2
0 -7 -3 79.39 7.4
0 -7 -3 78.39 10.1
0 7 3 62.09 6.3
0 7 3 75.59 8.7
-1 -7 -3 35.5 7.7
-1 -7 -3 21.3 8
-1 -7 -3 38.8 6.2
1 7 3 26.9 5.9
1 7 3 34.5 10.4
-2 -7 -3 29.3 6.6
-2 -7 -3 23.3 10.6
-2 -7 -3 28.7 9.2
2 7 3 27.4 15.2
2 7 3 22.7 6.1
-3 -7 -3 68.59 11.6
-3 -7 -3 57.89 10.2
3 7 3 61.39 18.4
3 7 3 42.5 8.4
-4 -7 -3 1.4 10.3
-4 -7 -3 4.6 9.4
4 7 3 3.3 7.5
4 7 3 9 21.7
-5 -7 -3 -1.1 11.9
-5 -7 -3 0.6 10.6
5 7 3 9 21.9
5 7 3 8 25.1
9 -8 -3 -5 19.4
-9 8 3 -0.4 7.8
-9 8 3 6.3 8.6
8 -8 -3 5.4 16.6
-8 8 3 -2.1 7.5
-8 8 3 9.5 7.1
7 -8 -3 -17.3 12.4
-7 8 3 -1.8 5.9
-7 8 3 -2 6.2
6 -8 -3 -0.6 9.4
6 -8 -3 8.1 12.1
-6 8 3 3.2 6
-6 8 3 4 5
5 -8 -3 -6.1 11.2
5 -8 -3 9.3 8.3
-5 8 3 14.3 5.9
-5 8 3 18.7 5.4
4 -8 -3 -1.6 7.5
4 -8 -3 -0.8 9.3
-4 8 3 7.1 5.1
-4 8 3 5.2 4.2
3 -8 -3 15.7 8.8
3 -8 -3 12.1 6.9
-3 8 3 6.1 5.1
-3 8 3 3.6 4.1
2 -8 -3 12.4 6.6
-2 8 3 0.2 4.9
-2 8 3 -3.4 3.9
1 -8 -3 1.2 7.6
1 -8 -3 18.6 7.2
-1 8 3 6.8 5.3
-1 8 3 11.5 4.1
0 -8 -3 9.1 5.4
0 -8 -3 7.7 8.8
0 -8 -3 14.3 7.4
0 8 3 12.9 4
0 8 3 12.6 6
-1 -8 -3 22.7 6.5
-1 -8 -3 6.4 10.2
-1 -8 -3 29.3 10
1 8 3 28.5 14.6
1 8 3 19.6 3.9
1 8 3 27.4 6.8
-2 -8 -3 53.99 8.7
-2 -8 -3 62.09 11.3
-2 -8 -3 55.69 13.3
2 8 3 53.19 8.2
2 8 3 49.7 21.3
-3 -8 -3 25.1 9.6
-3 -8 -3 39.9 11.7
3 8 3 15.5 9
3 8 3 26.8 21.5
-4 -8 -3 11.1 12.5
-4 -8 -3 18.3 10.9
4 8 3 20.4 26.3
8 -9 -3 -17.3 17.6
-8 9 3 12 8.4
-8 9 3 -11.6 9
7 -9 -3 38 16.3
-7 9 3 33 8
-7 9 3 30.2 7
6 -9 -3 10.2 13.8
-6 9 3 -5.7 6.7
-6 9 3 -2.7 5.8
5 -9 -3 7.8 8.8
5 -9 -3 9.5 11.6
-5 9 3 6.3 6.4
-5 9 3 -0.2 5.7
4 -9 -3 10.5 11.1
4 -9 -3 29.7 8.3
-4 9 3 4.4 6.4
-4 9 3 13.4 5.7
3 -9 -3 9.5 10.2
3 -9 -3 6.4 7.7
-3 9 3 -2.7 6.1
-3 9 3 8.9 5.2
2 -9 -3 1.5 7.8
2 -9 -3 1.4 9.7
-2 9 3 1.7 4.8
-2 9 3 2.8 6.5
1 -9 -3 30.6 8.6
1 -9 -3 10.7 10.3
-1 9 3 11.8 7.3
-1 9 3 12 5
0 -9 -3 30.5 7
0 -9 -3 30.6 10.9
0 -9 -3 39.6 10.6
0 9 3 36.3 5.4
0 9 3 23.3 8.2
0 9 3 6.7 16
-1 -9 -3 17.7 7.6
-1 -9 -3 49.7 11.8
-1 -9 -3 14 12.6
1 9 3 23.5 8.5
1 9 3 23.1 18.8
-2 -9 -3 29.3 11.3
-2 -9 -3 28.9 14.6
-2 -9 -3 11.8 9.2
2 9 3 15.7 9.5
2 9 3 -29.7 21.3
-3 -9 -3 50.29 13.4
-3 -9 -3 29.2 10.5
3 9 3 19.1 10.7
3 9 3 -10 26.7
7 -10 -3 33.5 17.4
-7 10 3 24.9 9.5
-7 10 3 24 8
6 -10 -3 -1.8 14.7
-6 10 3 5.2 8.3
-6 10 3 2.8 7.3
5 -10 -3 8.8 13.6
-5 10 3 -7.5 7.3
-5 10 3 23 8.1
4 -10 -3 2.3 12
-4 10 3 20.6 8.9
-4 10 3 33.9 7.3
3 -10 -3 19.5 9
3 -10 -3 -13.7 10.7
-3 10 3 3.1 8.2
-3 10 3 15 6.7
2 -10 -3 4.4 10.1
2 -10 -3 6.7 11.1
-2 10 3 -5.3 8.3
-2 10 3 -2.3 6.2
1 -10 -3 -9.7 12
1 -10 -3 34.4 11
-1 10 3 3.4 5.7
-1 10 3 8.1 8.8
0 -10 -3 10.1 12.8
0 -10 -3 -13.4 11.9
0 10 3 -13.2 19.7
0 10 3 0.8 9
-1 -10 -3 23.8 14.8
-1 -10 -3 25 12.4
1 10 3 11.6 23.8
1 10 3 13.2 10
-2 -10 -3 37.3 17.8
-2 -10 -3 40.9 14.2
-2 -10 -3 29.7 10.1
2 10 3 18.1 11.7
2 10 3 42.3 28.5
6 -11 -3 0 17
-6 11 3 6.1 10.6
-6 11 3 16.4 8.8
5 -11 -3 28.7 15.1
-5 11 3 16.2 10.4
-5 11 3 2.7 8
4 -11 -3 22.3 11.5
4 -11 -3 14.8 13.7
-4 11 3 1 7.7
-4 11 3 -2.3 10.2
3 -11 -3 13.6 11.4
3 -11 -3 17 14.5
-3 11 3 26.9 8.1
-3 11 3 -8.3 9.7
2 -11 -3 72.29 13.9
2 -11 -3 23.6 14.7
-2 11 3 46 8.5
-2 11 3 31.4 10.6
1 -11 -3 20.3 14.6
1 -11 -3 -19.3 14.4
-1 11 3 -11.2 10.3
-1 11 3 15.8 8.8
0 -11 -3 22.8 15.1
0 -11 -3 25.8 14
0 11 3 36.7 25.4
0 11 3 7.8 10.6
-1 12 -4 26.4 14.9
-1 12 -4 -11.8 19.3
-1 12 -4 12.6 10.1
1 -12 4 -7.6 16.4
-2 12 -4 -7.2 9.5
-2 12 -4 20.5 14.4
2 -12 4 26 16.3
-3 12 -4 -3.7 13.9
-3 12 -4 -8.2 9.2
3 -12 4 15.5 16
-4 12 -4 26.2 14.5
-4 12 -4 -11 9.8
4 -12 4 12.3 15.5
2 11 -4 44.9 26.2
2 11 -4 80.29 43.4
2 11 -4 34.9 22.7
2 11 -4 29.7 12
-2 -11 4 36.4 13.1
-2 -11 4 12.2 11.3
1 11 -4 26.7 24.1
1 11 -4 -1.6 10.7
1 11 -4 -14.4 35
1 11 -4 2.1 9
1 11 -4 -7.6 18.4
-1 -11 4 -9 11.2
-1 -11 4 -7.2 15
0 11 -4 5.4 11.7
0 11 -4 1.1 9.2
0 11 -4 -19.6 28.6
0 11 -4 22.3 17.3
0 -11 4 24.4 14.5
0 -11 4 23.8 10
-1 11 -4 26.7 11.5
-1 11 -4 4.6 7.9
1 -11 4 2.8 12.9
-2 11 -4 0.8 8.4
-2 11 -4 13.7 11.7
2 -11 4 26.8 13
-3 11 -4 26.3 12.3
-3 11 -4 24.3 8.2
3 -11 4 -12.1 12.6
-4 11 -4 9.5 11.8
-4 11 -4 24.8 8.5
4 -11 4 27.2 12.5
-5 11 -4 -3.2 8.5
-5 11 -4 -0.3 11.4
5 -11 4 -17.4 14.1
-6 11 -4 12.1 8.4
-6 11 -4 4.6 11.1
6 -11 4 -3.1 16.4
3 10 -4 28.9 38.1
3 10 -4 56.59 26
3 10 -4 -13.7 22.5
-3 -10 4 38.5 11.9
-3 -10 4 56.69 13.7
2 10 -4 25.8 19.3
2 10 -4 29.6 8.6
2 10 -4 30.9 10.4
2 10 -4 34.3 32
2 10 -4 27.1 22.5
-2 -10 4 34.3 10.3
-2 -10 4 41.9 12
1 10 -4 -22.8 27.5
1 10 -4 -3.9 19.1
1 10 -4 6.6 9.6
1 10 -4 10.1 15.9
1 10 -4 21.1 8.7
-1 -10 4 -14.9 12.6
-1 -10 4 6.2 9.2
0 10 -4 2.7 20.4
0 10 -4 20.8 14.8
0 10 -4 13.1 7.6
0 10 -4 14.1 9.3
0 10 -4 -2 14.4
0 -10 4 1.4 7.2
0 -10 4 -7.8 11.3
-1 10 -4 9 9.9
-1 10 -4 0.3 11.2
-1 10 -4 12.2 7.1
1 -10 4 2 10.8
-2 10 -4 24.7 9.4
-2 10 -4 23.6 6.9
2 -10 4 23.4 11.1
2 -10 4 9.6 10
-3 10 -4 -3.6 6.2
-3 10 -4 -4.4 9.4
3 -10 4 2.8 10
3 -10 4 8.3 11.8
-4 10 -4 4.3 6.2
-4 10 -4 20.7 8.9
4 -10 4 -7.4 11.5
4 -10 4 7.2 10.4
-5 10 -4 76.79 12.4
-5 10 -4 74.69 9
5 -10 4 61.79 12.7
5 -10 4 33.1 14.3
-6 10 -4 15.9 8.6
-6 10 -4 20.6 7.7
6 -10 4 13.8 15.8
6 -10 4 21.6 11.1
-7 10 -4 27.7 9.5
-7 10 -4 21.6 8.7
7 -10 4 28.3 12.3
7 -10 4 18.4 16.7
4 9 -4 39.7 25.4
4 9 -4 34.5 23.2
4 9 -4 102.59 34
-4 -9 4 30.6 11.3
3 9 -4 19 8.3
3 9 -4 61.59 28.9
3 9 -4 24.5 20.1
3 9 -4 20.7 7
3 9 -4 41.3 21.2
-3 -9 4 15.7 10.2
-3 -9 4 20.8 9.5
2 9 -4 -12.9 15.1
2 9 -4 -1.4 25.2
2 9 -4 9.5 17.2
2 9 -4 -1.7 8.3
2 9 -4 -1.2 6.8
-2 -9 4 6.3 7.7
-2 -9 4 7 8.9
1 9 -4 3.7 12.5
1 9 -4 41 19.4
1 9 -4 10.2 7.4
1 9 -4 -10.5 14.1
1 9 -4 3.4 6.3
-1 -9 4 -2.2 6.5
-1 -9 4 5.1 6.9
-1 -9 4 10.2 10.1
0 9 -4 10.9 7.4
0 9 -4 -13.7 15.5
0 9 -4 5.3 12.7
0 9 -4 -1.5 5.5
0 9 -4 7 10.9
0 -9 4 8.7 6.3
0 -9 4 -1.3 8.4
0 -9 4 -2.6 8.8
-1 9 -4 65.19 10.2
-1 9 -4 67.69 11.8
-1 9 -4 61.99 7.4
1 -9 4 46.4 9.4
1 -9 4 52.39 11.3
-2 9 -4 100.79 14.6
-2 9 -4 93.39 10
2 -9 4 99.09 13.6
2 -9 4 68.89 11.2
-3 9 -4 59.69 9.8
-3 9 -4 70.89 10
3 -9 4 41.6 9.3
3 -9 4 67.69 10.3
-4 9 -4 23 8.1
-4 9 -4 25.2 6.2
4 -9 4 11.2 8.2
4 -9 4 7.7 9.8
-5 9 -4 6.2 6.8
-5 9 -4 10.3 6
5 -9 4 0.6 10.5
5 -9 4 -2.2 7.8
-6 9 -4 -1.8 7.7
-6 9 -4 7.6 6.2
6 -9 4 -3.7 12.3
6 -9 4 12.3 9.9
-7 9 -4 -5.1 6.3
-7 9 -4 8 7.9
7 -9 4 9.3 10
7 -9 4 -4.9 14.6
-8 9 -4 -13.2 6.9
-8 9 -4 3.5 8.7
8 -9 4 -7.7 11.3
5 8 -4 7.4 23.4
5 8 -4 -0.7 21.8
5 8 -4 3.3 29.8
-5 -8 4 -1.2 10.3
4 8 -4 -24 19.5
4 8 -4 -0.6 6.8
4 8 -4 -7.2 24.9
4 8 -4 -14.4 18.1
-4 -8 4 5.9 9.6
-4 -8 4 2.2 9.1
-4 -8 4 -3.3 5.6
3 8 -4 24.8 7.3
3 8 -4 20.8 6.9
3 8 -4 38.8 17.2
3 8 -4 8.6 17.9
3 8 -4 64.99 22.9
-3 -8 4 5.5 4.9
-3 -8 4 32.1 8.8
-3 -8 4 17.9 8.9
2 8 -4 84.89 8.4
2 8 -4 93.59 16.6
2 8 -4 79.79 11.9
2 8 -4 77.29 14.2
2 8 -4 83.29 20.4
-2 -8 4 63.09 9.7
-2 -8 4 75.99 8
-2 -8 4 72.69 10.9
1 8 -4 7.2 11.4
1 8 -4 27.1 6.6
1 8 -4 18.1 10
1 8 -4 31.1 14.7
1 8 -4 20.5 5.8
-1 -8 4 21.6 8.1
-1 -8 4 13.6 5.9
-1 -8 4 18.4 8
-1 -8 4 21.8 6.2
0 8 -4 3.6 4.9
0 8 -4 12.8 10.1
0 8 -4 6.9 5.8
0 8 -4 16.9 11.6
0 -8 4 5.7 5.1
0 -8 4 6.9 6.6
0 -8 4 6.3 6.7
-1 8 -4 50.99 6.1
-1 8 -4 42.9 6.9
-1 8 -4 46 10.8
1 -8 4 45 7.9
1 -8 4 33.2 7.9
-2 8 -4 3 3.9
-2 8 -4 7.1 5.4
2 -8 4 -8.6 6.4
2 -8 4 -0.6 5.7
-3 8 -4 -7.7 5
-3 8 -4 3.9 4
3 -8 4 -3.6 6.1
3 -8 4 6.4 7.3
-4 8 -4 19.8 4.7
-4 8 -4 10.3 5.6
4 -8 4 -11.8 7.8
4 -8 4 5.8 6.9
-5 8 -4 43 8.1
-5 8 -4 39.5 6.2
5 -8 4 49.99 10.7
5 -8 4 42.6 8.8
-6 8 -4 10.7 6.4
-6 8 -4 1.4 5.4
6 -8 4 -8.2 10.4
6 -8 4 9.6 8.1
-7 8 -4 33.6 7
-7 8 -4 42.5 9.5
7 -8 4 21.9 14.3
7 -8 4 30.7 9.4
-8 8 -4 24.2 8
-8 8 -4 28 7.3
8 -8 4 26.1 11.5
8 -8 4 22.1 16.4
6 7 -4 -0.3 26.2
6 7 -4 -8.6 22.7
6 7 -4 31.4 28.4
-6 -7 4 -1.6 10
5 7 -4 19.3 19.3
5 7 -4 -6.8 19.4
5 7 -4 -1 25
-5 -7 4 -9.8 8.3
4 7 -4 154.28 24.4
4 7 -4 183.38 28.1
4 7 -4 216.58 29
4 7 -4 146.59 10.8
4 7 -4 140.99 13.2
-4 -7 4 148.59 9.4
-4 -7 4 145.89 13
-4 -7 4 146.39 15.1
3 7 -4 70.49 15
3 7 -4 92.99 10.9
3 7 -4 109.79 10.8
3 7 -4 109.49 17.7
3 7 -4 103.09 19.8
-3 -7 4 89.19 9.8
-3 -7 4 88.19 7.4
-3 -7 4 91.49 11.2
2 7 -4 53.19 6.7
2 7 -4 51.99 7.3
2 7 -4 51.19 14.6
2 7 -4 74.19 13.4
2 7 -4 59.79 12
-2 -7 4 44.5 7.4
-2 -7 4 40.8 5
-2 -7 4 36.8 7.8
-2 -7 4 43.6 8
1 7 -4 46.3 6.7
1 7 -4 67.49 12
1 7 -4 53.09 10.4
1 7 -4 63.59 13.5
1 7 -4 55.09 8.1
-1 -7 4 54.59 7.6
-1 -7 4 42.7 7.5
-1 -7 4 47.3 7.7
-1 -7 4 41.7 6.3
-1 -7 4 54.89 7.1
0 7 -4 1.5 4.7
0 7 -4 18.9 8.9
0 7 -4 7.9 7.8
0 7 -4 11.8 4.3
0 -7 4 -1 5.5
0 -7 4 13.6 5.1
-1 7 -4 86.49 7.5
-1 7 -4 90.49 9
-1 7 -4 98.19 7.6
-1 7 -4 89.29 11.2
1 -7 4 109.99 9.6
1 -7 4 103.59 9.9
-2 7 -4 216.08 12.8
-2 7 -4 211.48 10.1
-2 7 -4 195.68 12.5
2 -7 4 182.68 12.7
2 -7 4 197.68 12.6
-3 7 -4 177.08 12
-3 7 -4 171.38 9.3
3 -7 4 178.98 13.6
3 -7 4 186.98 12.2
-4 7 -4 14 4.1
-4 7 -4 10.8 5.4
4 -7 4 12.5 5.4
4 -7 4 9.3 7.5
-5 7 -4 24.9 4.4
-5 7 -4 23.9 5.9
5 -7 4 20.3 6.6
5 -7 4 16.3 8.5
-6 7 -4 0 4.4
6 -7 4 -2.9 9.3
6 -7 4 1.2 6.3
-7 7 -4 63.99 9.2
-7 7 -4 47.7 8.5
7 -7 4 27.2 14
7 -7 4 45.3 9
-8 7 -4 20.3 6.2
-8 7 -4 13.6 8.2
8 -7 4 20.2 9.6
8 -7 4 49.5 16.2
-9 7 -4 7.3 6.8
9 -7 4 9 19.3
7 6 -4 -15.1 28.1
7 6 -4 25 24.3
-7 -6 4 5.9 10.7
6 6 -4 -14.9 22.9
6 6 -4 8.3 20.1
-6 -6 4 8.1 8.8
5 6 -4 -2.6 16.7
5 6 -4 33.5 20
-5 -6 4 12.7 7.5
-5 -6 4 24 4.7
4 6 -4 69.49 18.9
4 6 -4 62.79 14.9
-4 -6 4 56.69 9.1
-4 -6 4 57.99 6.5
3 6 -4 12.4 10
3 6 -4 24.3 10.6
3 6 -4 6.9 4.6
3 6 -4 21.9 12.6
-3 -6 4 2.1 5
-3 -6 4 6.1 3.5
-3 -6 4 -0.2 5.5
2 6 -4 14.3 8
2 6 -4 -5.9 8.1
2 6 -4 2.7 4.6
2 6 -4 4.7 10
2 6 -4 3.9 4.1
-2 -6 4 2.2 4.7
-2 -6 4 3.2 4.6
-2 -6 4 3.9 3.1
-2 -6 4 1.2 4.7
1 6 -4 1.6 6.8
1 6 -4 -2.4 5.8
1 6 -4 0 3.9
1 6 -4 3.8 7.9
1 6 -4 -5.6 3.7
-1 -6 4 3.5 2.8
-1 -6 4 7.1 3.7
-1 -6 4 -1.5 4.2
-1 -6 4 -2.8 4.4
-1 -6 4 2.2 3.7
0 6 -4 9.6 6.6
0 6 -4 8.5 4.4
0 6 -4 10.7 4
0 6 -4 16.8 3.7
0 6 -4 -0.6 4.1
0 6 -4 16 6.5
0 -6 4 11.2 2.9
0 -6 4 12.9 4.3
0 -6 4 12.7 3.8
0 -6 4 7.9 4.2
-1 6 -4 3 5.6
-1 6 -4 0.1 6.3
-1 6 -4 5.9 3.2
-1 6 -4 2.9 3
1 -6 4 4.2 3.6
1 -6 4 0.5 4.3
-2 6 -4 262.17 13.5
-2 6 -4 268.57 11.3
-2 6 -4 254.27 9.9
2 -6 4 259.87 12.7
2 -6 4 248.78 13.8
2 -6 4 281.37 13.1
-3 6 -4 70.49 6
3 -6 4 80.09 10.9
3 -6 4 74.79 8
-4 6 -4 119.79 7.8
4 -6 4 120.09 9.7
4 -6 4 112.99 12
-5 6 -4 -4.8 3.2
-5 6 -4 -2.2 3.7
5 -6 4 0.9 4.8
5 -6 4 4.2 7.6
-6 6 -4 10.8 4.3
-6 6 -4 17.8 4.3
-6 6 -4 18.6 5.6
6 -6 4 14.4 5.8
6 -6 4 21.9 10.1
-7 6 -4 27.4 6.4
-7 6 -4 41.7 6.8
-7 6 -4 30.5 5.7
7 -6 4 41.9 13
7 -6 4 22.6 7.2
-8 6 -4 136.39 11.4
-8 6 -4 110.79 12.2
-8 6 -4 121.69 9.1
8 -6 4 142.09 21.7
8 -6 4 138.59 13.9
-9 6 -4 15.4 6.3
9 -6 4 18.9 18.7
7 5 -4 96.29 25.3
7 5 -4 59.49 23.3
-7 -5 4 65.99 11.4
6 5 -4 -3.2 19.2
6 5 -4 -4.6 16.9
-6 -5 4 9.5 7.7
5 5 -4 22.9 14.3
5 5 -4 42.6 19.1
-5 -5 4 30.9 4.6
-5 -5 4 31.3 7.7
4 5 -4 147.19 20.1
4 5 -4 111.49 19.1
-4 -5 4 112.79 9.5
-4 -5 4 108.79 7
3 5 -4 9.8 3.9
3 5 -4 -6 9.5
3 5 -4 4.5 4.2
3 5 -4 -0.5 7.8
3 5 -4 0.9 7.9
-3 -5 4 9.8 2.9
-3 -5 4 1.4 4.4
-3 -5 4 7.1 4.7
-3 -5 4 3.4 4.3
2 5 -4 65.39 10.8
2 5 -4 64.99 11.3
2 5 -4 69.39 6.8
2 5 -4 72.39 7.1
2 5 -4 73.79 12.8
-2 -5 4 70.19 5.4
-2 -5 4 71.69 6.5
-2 -5 4 54.19 6.6
-2 -5 4 68.39 6.9
1 5 -4 12.2 5.4
1 5 -4 -2.9 4.2
1 5 -4 -0.5 4.1
1 5 -4 3.6 6.1
1 5 -4 -0.9 4.7
1 5 -4 0.6 3.6
-1 -5 4 -1.4 3.1
-1 -5 4 2.2 3.2
-1 -5 4 -2 2.8
-1 -5 4 0.6 2.2
-1 -5 4 0 3.7
0 5 -4 47.5 7.5
0 5 -4 40.6 5.7
0 5 -4 46.1 5.8
0 5 -4 45.7 4.6
0 5 -4 36.8 4.5
0 5 -4 45.7 6.9
0 -5 4 37.9 4.4
0 -5 4 41.5 6
0 -5 4 43.5 5.2
0 -5 4 40.6 4.3
-1 5 -4 481.95 18.9
-1 5 -4 529.95 19.6
-1 5 -4 496.55 17.1
-1 5 -4 509.05 16.3
1 -5 4 506.95 16.5
1 -5 4 507.55 18.2
1 -5 4 495.65 19
1 -5 4 512.15 18
-2 5 -4 46 7.6
-2 5 -4 45.6 7
-2 5 -4 32.6 4.4
2 -5 4 45 7.3
2 -5 4 37.8 5.6
2 -5 4 39 7
-3 5 -4 9.3 6.6
-3 5 -4 3.1 5.1
-3 5 -4 2.9 2.4
3 -5 4 1.9 3.7
3 -5 4 0.5 4.4
3 -5 4 1 4.9
-4 5 -4 -0.7 2.7
-4 5 -4 -3.7 3.8
4 -5 4 -8 5.8
4 -5 4 -1.5 3.4
4 -5 4 0.2 5.5
-5 5 -4 27.8 4.2
-5 5 -4 32.6 5.4
5 -5 4 34.4 8.8
5 -5 4 21.5 5.5
-6 5 -4 3.5 3.4
-6 5 -4 11.3 4.5
6 -5 4 11.7 8.7
6 -5 4 6.1 4.8
-7 5 -4 -2.6 4.7
-7 5 -4 5.9 5
-7 5 -4 9.3 4.2
7 -5 4 1.8 10.9
7 -5 4 3.3 5.8
-8 5 -4 6.2 5.6
-8 5 -4 13.8 5.6
-8 5 -4 0.6 5
8 -5 4 5.9 6.5
8 -5 4 -10.1 14.3
-9 5 -4 12.8 7
-9 5 -4 5.9 5.9
9 -5 4 -14.3 18.3
8 4 -4 39.8 27.5
8 4 -4 17.4 24.9
-8 -4 4 0.1 10.5
7 4 -4 6.7 18.5
7 4 -4 7.7 22.3
-7 -4 4 7.7 8.5
6 4 -4 -6.8 16.6
6 4 -4 -10.4 15.6
-6 -4 4 9.3 6.7
-6 -4 4 -0.2 4.2
5 4 -4 95.79 15.9
5 4 -4 90.59 17.5
-5 -4 4 87.69 9.2
-5 -4 4 76.99 6.5
4 4 -4 27.9 11.4
4 4 -4 22.2 9.5
-4 -4 4 21.8 3.7
-4 -4 4 14 4.5
3 4 -4 -4.6 6
3 4 -4 0.7 3.1
3 4 -4 -0.8 2.9
3 4 -4 -2.2 5.7
3 4 -4 3.5 7.7
-3 -4 4 0.4 3.1
-3 -4 4 -4.9 3
2 4 -4 65.19 7.7
2 4 -4 66.89 5.4
2 4 -4 66.29 9.2
2 4 -4 67.29 5.1
2 4 -4 76.49 9.4
2 4 -4 68.89 10.9
-2 -4 4 67.69 5.9
-2 -4 4 70.79 4.6
-2 -4 4 71.99 5.7
1 4 -4 1025 34.3
1 4 -4 915.81 28.4
1 4 -4 963.7 29.5
1 4 -4 1039.6 32.2
1 4 -4 982.5 33.6
1 4 -4 996.6 29.5
1 4 -4 959.8 30
1 4 -4 994.3 29.3
-1 -4 4 998.9 30
-1 -4 4 1011.5 28.6
-1 -4 4 990.5 29.6
-1 -4 4 1049.89 30
0 4 -4 808.52 24.7
0 4 -4 814.52 24.9
0 4 -4 784.92 26.4
0 4 -4 809.22 23.9
0 4 -4 818.32 27.7
0 4 -4 798.62 24.9
0 4 -4 740.03 23.3
0 -4 4 814.52 23.5
0 -4 4 787.82 24.8
0 -4 4 822.22 26.9
0 -4 4 781.42 24.2
-1 4 -4 262.97 10.2
-1 4 -4 258.77 9.6
-1 4 -4 260.37 12.1
-1 4 -4 249.38 10.7
-1 4 -4 269.57 11.1
1 -4 4 249.78 11.9
1 -4 4 259.87 10.7
1 -4 4 272.97 10.8
1 -4 4 252.17 9.3
-2 4 -4 15.6 4.1
-2 4 -4 8.5 2.4
-2 4 -4 19.3 4.9
2 -4 4 13 3
2 -4 4 12.3 3.6
2 -4 4 10 4.5
-3 4 -4 67.49 9.7
-3 4 -4 75.99 5.3
-3 4 -4 68.89 7.4
3 -4 4 78.29 8.9
3 -4 4 73.39 6.6
3 -4 4 88.39 7.8
-4 4 -4 15.8 3
-4 4 -4 16.8 4.4
4 -4 4 19.6 6.1
4 -4 4 19.9 4.1
4 -4 4 10.3 6.4
-5 4 -4 32 5.5
-5 4 -4 32.7 4.6
5 -4 4 42.1 9.3
5 -4 4 38 5.6
-6 4 -4 7.3 3.3
-6 4 -4 0.5 4
6 -4 4 -1.8 8.7
6 -4 4 3.5 4.5
-7 4 -4 134.89 10.2
-7 4 -4 123.89 8.8
7 -4 4 119.49 10.7
7 -4 4 137.69 18.7
-8 4 -4 13.2 6.4
-8 4 -4 14.5 5.9
-8 4 -4 10.9 4.7
8 -4 4 1.1 14.9
8 -4 4 27.4 5.8
-9 4 -4 51.59 9.4
9 -4 4 38.6 20.5
8 3 -4 -25 21.3
8 3 -4 26.9 22.4
-8 -3 4 9.2 9.3
7 3 -4 23.7 17.7
7 3 -4 -33.3 17.1
-7 -3 4 6.3 4.8
-7 -3 4 -0.2 7.1
6 3 -4 42.7 15
6 3 -4 30 13.6
-6 -3 4 27.2 7
-6 -3 4 21.3 4.4
5 3 -4 7.4 9.7
5 3 -4 22.4 10.9
-5 -3 4 6.3 4.4
-5 -3 4 16.5 3.3
4 3 -4 23.9 8
4 3 -4 32 10.8
-4 -3 4 36.5 4.6
-4 -3 4 29.1 5.4
3 3 -4 142.09 6.8
3 3 -4 135.79 11.6
3 3 -4 139.79 13.3
-3 -3 4 145.99 6.4
-3 -3 4 140.69 7.9
2 3 -4 49.8 4
2 3 -4 48 7.2
2 3 -4 49.9 5.3
2 3 -4 41.1 3.7
2 3 -4 40.1 5
2 3 -4 44.5 7.4
2 3 -4 44.6 7.6
2 3 -4 39.3 5
-2 -3 4 47.3 4.5
-2 -3 4 44.3 7.4
-2 -3 4 54.79 4
-2 -3 4 47.8 3.8
-2 -3 4 42.7 6.1
1 3 -4 16.9 2.6
1 3 -4 13.7 2
1 3 -4 16.6 2.6
1 3 -4 14.6 3.2
1 3 -4 12.6 4.8
1 3 -4 24 3.7
1 3 -4 15.7 2.7
1 3 -4 19.7 5
-1 -3 4 18.3 3.2
-1 -3 4 11.8 4.6
-1 -3 4 20 2.3
-1 -3 4 11.6 2.2
0 3 -4 56.59 3.9
0 3 -4 62.29 4.4
0 3 -4 61.59 4.3
0 3 -4 68.59 6.4
0 3 -4 60.79 3.6
0 -3 4 63.89 4.4
0 -3 4 56.49 5.9
0 -3 4 61.89 3.8
-1 3 -4 37.9 5.3
-1 3 -4 34.7 3.9
-1 3 -4 30.8 4.1
-1 3 -4 31.7 3.8
-1 3 -4 39.8 3
1 -3 4 40.7 4
1 -3 4 33.3 3.8
1 -3 4 37.1 5.3
1 -3 4 38.4 3.1
-2 3 -4 0 2.4
-2 3 -4 10.1 4.2
-2 3 -4 -0.2 3.5
-2 3 -4 0.8 1.8
-2 3 -4 1.1 1.6
2 -3 4 0.9 2.7
2 -3 4 -3.6 1.9
2 -3 4 2.5 3.4
-3 3 -4 47.8 7.1
-3 3 -4 41.9 5.6
-3 3 -4 44.4 3.8
-3 3 -4 45.8 5.5
-3 3 -4 40.4 3.7
3 -3 4 42.7 7.3
3 -3 4 39.9 5.1
3 -3 4 47.8 4.7
3 -3 4 41.3 7.2
-4 3 -4 165.18 7.4
-4 3 -4 162.28 8.5
4 -3 4 149.88 8.3
4 -3 4 165.18 12.4
-5 3 -4 42.7 6.5
-5 3 -4 48.6 4.9
5 -3 4 80.19 11.8
5 -3 4 62.49 6.9
-6 3 -4 -2 3
-6 3 -4 -0.5 4.5
6 -3 4 7 9.4
6 -3 4 -0.3 4.1
-7 3 -4 56.39 6.7
-7 3 -4 66.19 8.9
7 -3 4 62.79 15
7 -3 4 54.09 6.7
-8 3 -4 26.1 4.7
-8 3 -4 30.3 8.6
8 -3 4 36.8 16.5
-9 3 -4 2 8.2
9 -3 4 10.4 20.2
9 2 -4 -2.1 24.9
9 2 -4 25.9 25.6
-9 -2 4 26.2 11.1
8 2 -4 1.3 20.6
8 2 -4 10.9 20.1
-8 -2 4 -0.8 5.4
-8 -2 4 -2.1 8.5
7 2 -4 -26.8 15.3
7 2 -4 4 15.5
-7 -2 4 4.8 6.5
-7 -2 4 8.2 4.3
6 2 -4 27.9 11.9
6 2 -4 8.4 12.6
-6 -2 4 -2.8 3.4
-6 -2 4 8.8 5.2
5 2 -4 54.49 12.6
5 2 -4 67.69 11.9
-5 -2 4 55.49 5.4
-5 -2 4 51.39 6.5
4 2 -4 161.28 14.5
4 2 -4 167.78 14.9
-4 -2 4 171.28 7.5
-4 -2 4 173.28 8.9
3 2 -4 1661.13 54.49
3 2 -4 1848.92 55.49
3 2 -4 1845.52 57.59
3 2 -4 1868.11 49.2
-3 -2 4 1855.71 50.99
-3 -2 4 1651.73 48.9
-3 -2 4 1782.92 54.09
2 2 -4 8.9 1.8
2 2 -4 8.7 2.4
2 2 -4 12.1 3.5
2 2 -4 10.1 2.7
2 2 -4 10.9 1.9
2 2 -4 6.6 4.2
2 2 -4 8 5.5
-2 -2 4 14 2.7
-2 -2 4 11.1 1.9
-2 -2 4 6.9 4.8
-2 -2 4 10.1 3.5
-2 -2 4 9.9 1.7
1 2 -4 27.7 2.5
1 2 -4 29.3 3
1 2 -4 23 2.8
1 2 -4 29 5
1 2 -4 24.7 2.8
1 2 -4 21.3 4.5
-1 -2 4 22.2 3.3
-1 -2 4 30.2 4.9
-1 -2 4 28.2 2.5
-1 -2 4 19.3 4.6
-1 -2 4 25.8 2.7
0 2 -4 240.58 10.6
0 2 -4 230.48 8.6
0 2 -4 234.88 7.9
0 2 -4 234.18 9.7
0 -2 4 233.58 7.9
0 -2 4 233.08 8.6
0 -2 4 230.48 10.5
-1 2 -4 640.74 18.2
-1 2 -4 609.94 19.3
-1 2 -4 610.04 19
-1 2 -4 631.34 21
1 -2 4 635.64 19.4
1 -2 4 656.53 18.3
1 -2 4 616.44 21
-2 2 -4 188.78 7.3
-2 2 -4 189.88 9.7
-2 2 -4 189.88 8
-2 2 -4 180.28 9.3
-2 2 -4 190.78 6.8
2 -2 4 189.58 6.9
2 -2 4 175.18 9.8
2 -2 4 183.38 9.2
2 -2 4 198.38 8.1
-3 2 -4 149.09 6
-3 2 -4 144.39 5.8
-3 2 -4 130.59 6.9
-3 2 -4 135.79 10.3
-3 2 -4 126.89 7.8
3 -2 4 133.49 9
3 -2 4 138.69 6.6
3 -2 4 136.69 7.2
3 -2 4 139.09 10.3
-4 2 -4 0.1 3
-4 2 -4 7.3 2.1
-4 2 -4 4.4 3.6
-4 2 -4 0.8 1.8
4 -2 4 3.8 2.9
4 -2 4 5.7 5.7
4 -2 4 -0.1 2.4
-5 2 -4 -0.8 3.8
-5 2 -4 6.2 2.8
-5 2 -4 1.6 4
-5 2 -4 1.5 2.3
5 -2 4 5 3.4
5 -2 4 8 8.1
5 -2 4 0.9 3.3
-6 2 -4 -1.1 4.7
-6 2 -4 5.7 2.9
-6 2 -4 -2 5.5
6 -2 4 8.4 4.5
6 -2 4 10.9 10.2
-7 2 -4 53.69 9.1
-7 2 -4 64.69 6.3
7 -2 4 47.4 15
7 -2 4 48.9 15.7
-8 2 -4 3.8 4.5
-8 2 -4 13.3 7.3
8 -2 4 -9.7 19.4
8 -2 4 20.7 15
-9 2 -4 5.1 8.9
9 -2 4 -12.5 21.8
9 -2 4 10.5 21.9
9 1 -4 -3.7 21.8
9 1 -4 6.3 21.2
-9 -1 4 1.4 9.6
8 1 -4 13.7 17.3
8 1 -4 16.3 18.8
-8 -1 4 12.2 5.5
-8 -1 4 15.3 7.8
7 1 -4 38.9 15
7 1 -4 55.59 15.8
-7 -1 4 38.9 7.1
-7 -1 4 24.9 4.4
6 1 -4 33.7 11.8
6 1 -4 43.9 12.8
-6 -1 4 25.7 4
-6 -1 4 40.8 6.8
5 1 -4 168.08 16.4
5 1 -4 132.29 16.2
-5 -1 4 142.99 8.7
-5 -1 4 155.78 7.6
4 1 -4 29.4 7.5
4 1 -4 13.9 3.1
4 1 -4 13.6 6.7
-4 -1 4 13.9 2.5
-4 -1 4 19.8 3.6
3 1 -4 876.21 30
3 1 -4 847.22 31.9
3 1 -4 884.61 30.3
3 1 -4 857.21 26.3
3 1 -4 858.81 25.1
-3 -1 4 890.81 26.5
-3 -1 4 902.21 25.4
-3 -1 4 869.91 29.7
-3 -1 4 835.12 31.5
2 1 -4 93.99 4.8
2 1 -4 93.09 4.3
2 1 -4 96.49 8.5
2 1 -4 83.69 6.4
2 1 -4 96.39 7.1
2 1 -4 91.29 4.4
-2 -1 4 72.59 7.9
-2 -1 4 84.09 4.1
-2 -1 4 94.99 6.7
-2 -1 4 95.09 4.4
-2 -1 4 89.69 4.9
1 1 -4 13.4 3.4
1 1 -4 16.9 3.7
1 1 -4 10.3 1.7
1 1 -4 11.1 1.5
1 1 -4 17.5 2.4
-1 -1 4 16.8 2.3
-1 -1 4 19.1 4.1
-1 -1 4 14.6 1.8
-1 -1 4 13.5 3.3
0 1 -4 692.23 20.6
0 1 -4 693.13 21.7
0 1 -4 717.63 19.7
0 1 -4 689.53 22.6
0 -1 4 671.03 21.7
0 -1 4 697.73 22.6
0 -1 4 707.33 19.7
0 -1 4 705.23 20.6
-1 1 -4 1460.35 41.1
-1 1 -4 1443.36 39.8
-1 1 -4 1516.85 41.4
-1 1 -4 1479.25 43
1 -1 4 1485.05 41.3
1 -1 4 1495.05 39.9
1 -1 4 1466.45 43.3
1 -1 4 1512.05 41.4
-2 1 -4 1002.2 31.5
-2 1 -4 1017.5 27.7
-2 1 -4 1007.3 29.4
-2 1 -4 1024 28.2
-2 1 -4 992.2 30.4
2 -1 4 1019.1 27.8
2 -1 4 993.2 31.3
2 -1 4 1024.4 31.8
2 -1 4 1019.5 29.3
-3 1 -4 4.5 2.2
-3 1 -4 -0.3 1.2
-3 1 -4 -1.6 2.2
-3 1 -4 -0.8 1.4
-3 1 -4 -2.4 1.9
-3 1 -4 5.3 4.5
3 -1 4 -0.5 4.8
3 -1 4 -1.9 2.8
3 -1 4 2 2.2
3 -1 4 6.1 4.4
-4 1 -4 10.2 1.9
-4 1 -4 7.1 3.5
-4 1 -4 7.7 1.7
-4 1 -4 3.2 2.7
-4 1 -4 12.4 3.4
4 -1 4 4.1 3
4 -1 4 6.2 2.2
4 -1 4 10.7 6.6
4 -1 4 3.4 3.7
-5 1 -4 38.5 6.7
-5 1 -4 29.4 3.6
-5 1 -4 41.2 6.8
-5 1 -4 38.8 5.7
-5 1 -4 39.9 4.1
5 -1 4 39.8 6
5 -1 4 32 4.7
5 -1 4 33.3 9.6
5 -1 4 55.39 9.4
-6 1 -4 29.5 6.7
-6 1 -4 31 6.1
-6 1 -4 26.8 3.2
6 -1 4 27.4 11.8
6 -1 4 16.5 3.8
6 -1 4 18.7 10.5
-7 1 -4 11.5 6.5
7 -1 4 17 15.5
7 -1 4 13.7 13.9
-8 1 -4 34.4 9.1
8 -1 4 31.1 19.1
8 -1 4 58.49 19.9
-9 1 -4 16.6 9.4
9 -1 4 16.9 21.7
9 -1 4 9.8 22.6
9 0 -4 -12.7 20.3
9 0 -4 3.4 20.6
-9 0 4 8.4 6.2
-9 0 4 8.6 9
8 0 -4 5.8 16.2
8 0 -4 -9.4 16.6
-8 0 4 -2.8 6.7
-8 0 4 9.3 4.9
7 0 -4 15.6 11.9
7 0 -4 10.2 12.3
-7 0 4 14.1 5.3
-7 0 4 12.5 4.1
6 0 -4 24.9 10.5
6 0 -4 31.4 10.8
-6 0 4 20.8 3.7
-6 0 4 19.6 4.8
5 0 -4 8.5 8.1
5 0 -4 7.3 7.7
-5 0 4 22.5 3.9
-5 0 4 17.2 2.8
4 0 -4 58.99 5.2
4 0 -4 62.29 9.7
4 0 -4 61.59 11.3
-4 0 4 68.79 5.1
-4 0 4 74.99 4.7
3 0 -4 115.19 8.2
3 0 -4 123.59 10.4
3 0 -4 114.89 5.6
3 0 -4 115.39 9.2
3 0 -4 124.99 5.9
-3 0 4 131.99 6.2
-3 0 4 122.59 9.2
-3 0 4 124.89 5.7
-3 0 4 92.59 9.8
2 0 -4 200.58 7.6
2 0 -4 206.68 9.4
2 0 -4 206.78 10
2 0 -4 201.88 7.3
2 0 -4 204.48 7.3
2 0 -4 208.38 11.3
-2 0 4 194.78 9.6
-2 0 4 203.48 7.4
-2 0 4 200.08 9.5
-2 0 4 199.68 11
-2 0 4 209.98 7.4
1 0 -4 764.42 24.4
1 0 -4 743.43 21
1 0 -4 749.03 21.5
1 0 -4 726.43 21.6
1 0 -4 752.22 23.7
-1 0 4 715.73 21.9
-1 0 4 698.33 24.1
-1 0 4 730.73 23.7
-1 0 4 767.42 21.1
-1 0 4 777.82 21.7
0 0 -4 515.05 17.9
0 0 -4 512.35 14.8
0 0 -4 499.25 15.8
0 0 -4 529.15 17.6
0 0 -4 535.65 15
0 0 4 516.15 15.9
0 0 4 513.35 14.8
0 0 4 497.75 17.5
0 0 4 514.55 15.2
0 0 4 525.45 17.5
-1 0 -4 206.28 6.6
-1 0 -4 193.78 7.8
-1 0 -4 207.78 9.8
-1 0 -4 201.58 8.4
-1 0 -4 208.48 8.6
1 0 4 215.58 9.1
1 0 4 204.68 10.1
1 0 4 218.28 9.3
1 0 4 208.28 6.5
1 0 4 209.08 7.8
1 0 4 209.98 8
-2 0 -4 0 3.1
-2 0 -4 -0.8 2
-2 0 -4 1 1.9
-2 0 -4 -4.5 2.7
2 0 4 2 1.8
2 0 4 3.1 2.8
2 0 4 1.7 3.2
2 0 4 2.7 2.5
2 0 4 4.1 3.2
-3 0 -4 389.36 13.5
-3 0 -4 381.46 17.9
-3 0 -4 419.06 14.1
-3 0 -4 398.66 15
3 0 4 399.46 18.6
3 0 4 392.16 14.5
3 0 4 402.86 13.7
-4 0 -4 111.09 7.9
-4 0 -4 108.19 7.1
-4 0 -4 120.89 6.8
4 0 4 104.49 6.8
4 0 4 129.99 13.2
-5 0 -4 6.5 3.5
-5 0 -4 1.5 4.6
-5 0 -4 3.8 4.4
5 0 4 14 8.9
5 0 4 9.7 7.8
-6 0 -4 8.6 5.8
-6 0 -4 -1.6 5.4
6 0 4 -1.4 11.2
6 0 4 8.6 10.2
-7 0 -4 4.1 6.7
-7 0 -4 11.7 7.3
7 0 4 -8.5 15.3
7 0 4 4.9 13.2
-8 0 -4 17.7 9.1
8 0 4 54.19 20
8 0 4 -3.9 19.5
-9 0 -4 4.5 10.7
9 0 4 -3.3 23.9
9 0 4 -5.4 25.7
10 -1 -4 -2.1 22.7
10 -1 -4 -11.9 24.2
-10 1 4 7.3 9.4
-10 1 4 -1 10.1
9 -1 -4 15.2 19.1
9 -1 -4 18.4 19.7
-9 1 4 10.2 6.9
-9 1 4 10 8
8 -1 -4 -9.8 14.9
8 -1 -4 -0.5 14.2
-8 1 4 -0.5 4.7
-8 1 4 -4.4 5.8
7 -1 -4 53.99 13.5
7 -1 -4 60.29 14.7
-7 1 4 51.89 7.2
-7 1 4 48.8 5.5
6 -1 -4 240.88 19.5
6 -1 -4 214.98 19.1
-6 1 4 229.98 10.5
-6 1 4 229.98 10.9
5 -1 -4 21.1 8.5
5 -1 -4 13 7
-5 1 4 8.6 2.5
-5 1 4 12.9 3.5
4 -1 -4 77.79 8
4 -1 -4 87.69 10.8
4 -1 -4 91.19 9.4
4 -1 -4 85.59 5.2
-4 1 4 81.99 5.2
-4 1 4 82.79 5.3
3 -1 -4 2 1.8
3 -1 -4 -2.4 4.4
3 -1 -4 0.9 3.5
3 -1 -4 2.6 1.7
3 -1 -4 -2 1.4
3 -1 -4 0.6 3.3
-3 1 4 -5.3 5.1
-3 1 4 -3.4 4.2
-3 1 4 -0.4 1.5
-3 1 4 -0.1 1.7
-3 1 4 -0.6 1.5
2 -1 -4 21.5 2.5
2 -1 -4 15.6 2.2
2 -1 -4 15.4 1.9
2 -1 -4 18.4 3.4
2 -1 -4 21.8 4.7
2 -1 -4 14.2 3.3
-2 1 4 20.7 3.7
-2 1 4 14.6 3.4
-2 1 4 17.6 4.5
-2 1 4 18.6 2.4
-2 1 4 14.6 2.2
1 -1 -4 83.69 5.2
1 -1 -4 76.09 4.1
1 -1 -4 73.59 3.6
1 -1 -4 96.49 5.9
1 -1 -4 93.69 7
-1 1 4 83.29 5.3
-1 1 4 80.99 5.6
-1 1 4 73.09 3.6
-1 1 4 82.69 6.4
-1 1 4 78.29 4.2
0 -1 -4 674.63 21.3
0 -1 -4 676.73 18.5
0 -1 -4 691.73 20.1
0 -1 -4 673.93 21.7
0 -1 -4 615.04 19.7
0 1 4 666.43 20.2
0 1 4 650.83 21.6
0 1 4 662.03 21.9
0 1 4 653.53 20
0 1 4 664.23 18.5
-1 -1 -4 38 4.7
-1 -1 -4 48.1 3.7
-1 -1 -4 44.3 4.9
-1 -1 -4 54.39 4.4
1 1 4 44 5.3
1 1 4 54.49 3.9
1 1 4 49.8 4.5
1 1 4 47.8 5.3
1 1 4 55.19 5.6
-2 -1 -4 511.05 16.3
-2 -1 -4 531.55 17.3
-2 -1 -4 484.85 19
2 1 4 512.25 17.8
2 1 4 515.55 16.6
2 1 4 493.65 18.3
2 1 4 546.85 20.9
2 1 4 510.65 17.8
-3 -1 -4 1.7 3
-3 -1 -4 1.5 2.5
-3 -1 -4 -0.1 2.8
3 1 4 2.1 2.7
3 1 4 -1.4 5
-4 -1 -4 31 5.3
-4 -1 -4 29.7 3.6
-4 -1 -4 33.4 5.9
4 1 4 24.7 4.1
4 1 4 35 8.3
-5 -1 -4 18.6 5.4
-5 -1 -4 10.1 5.3
5 1 4 -4.3 8.5
-6 -1 -4 11.3 6.6
-6 -1 -4 3.5 5.8
6 1 4 -0.1 10.4
6 1 4 -7.5 12.5
-7 -1 -4 13.8 9.5
-7 -1 -4 1.6 7.3
7 1 4 -19.7 17.1
7 1 4 -1.4 14.9
-8 -1 -4 2.7 9.3
8 1 4 18.1 22
8 1 4 -10.5 19.7
10 -2 -4 12.5 19.8
10 -2 -4 7.3 23.5
10 -2 -4 30 23
-10 2 4 -10.8 7.8
-10 2 4 12.8 10.2
9 -2 -4 1.8 17.2
9 -2 -4 -6.2 17.3
-9 2 4 -1.1 7.2
-9 2 4 4.4 5.9
8 -2 -4 33.2 15.5
8 -2 -4 38.4 15
-8 2 4 39.1 5.9
-8 2 4 34 6.4
7 -2 -4 46.9 12.2
7 -2 -4 42.6 12
-7 2 4 35 5.6
6 -2 -4 112.59 15.4
6 -2 -4 106.19 15.9
-6 2 4 94.79 7.2
-6 2 4 99.89 6.8
5 -2 -4 9 6.7
5 -2 -4 9.6 5.4
5 -2 -4 7.7 3.1
5 -2 -4 11 6.5
5 -2 -4 13 2.8
-5 2 4 7.8 2.7
-5 2 4 9.5 2.4
-5 2 4 10.3 3
-5 2 4 10.5 2.7
4 -2 -4 216.88 13.5
4 -2 -4 219.38 8.7
4 -2 -4 206.38 14.1
4 -2 -4 219.38 11.2
4 -2 -4 211.78 8.4
-4 2 4 220.48 8.5
-4 2 4 216.18 9.1
-4 2 4 223.78 8.6
3 -2 -4 253.37 13.8
3 -2 -4 244.78 9.1
3 -2 -4 223.98 8.8
3 -2 -4 248.38 10.9
3 -2 -4 242.88 8.4
-3 2 4 246.58 9.2
-3 2 4 261.37 9.2
-3 2 4 230.38 12.6
-3 2 4 230.48 13.6
2 -2 -4 268.27 10.6
2 -2 -4 278.57 12.1
2 -2 -4 275.17 9.9
2 -2 -4 275.87 13.1
2 -2 -4 277.07 9.3
-2 2 4 280.47 9.5
-2 2 4 287.17 11.1
-2 2 4 273.47 9.9
-2 2 4 257.97 12.9
-2 2 4 264.77 12.2
1 -2 -4 133.39 7.2
1 -2 -4 122.99 5.9
1 -2 -4 139.19 7.5
1 -2 -4 150.18 9.3
1 -2 -4 127.19 5.1
-1 2 4 139.49 7.7
-1 2 4 128.09 6.2
-1 2 4 123.59 6.9
-1 2 4 135.89 8.7
-1 2 4 137.29 5.3
0 -2 -4 -4 2.1
0 -2 -4 0 1.8
0 -2 -4 1.2 1.1
0 -2 -4 0.6 2.1
0 -2 -4 1 3.5
0 2 4 -1.5 3.6
0 2 4 -0.1 1.8
0 2 4 3.2 2.6
0 2 4 4.2 3.5
0 2 4 0.5 1.1
-1 -2 -4 57.49 5.7
-1 -2 -4 55.69 5.5
-1 -2 -4 64.09 4.4
1 2 4 69.59 5.8
1 2 4 53.49 6.3
1 2 4 64.49 6.9
1 2 4 60.99 4.7
1 2 4 54.29 5.6
-2 -2 -4 1438.76 41.8
-2 -2 -4 1432.96 41.9
-2 -2 -4 1415.26 40.2
2 2 4 1394.36 45.8
2 2 4 1454.15 40.8
-3 -2 -4 21.4 3.3
-3 -2 -4 15.4 4.2
-3 -2 -4 21.3 4.9
3 2 4 23.8 4
3 2 4 20.5 6.6
-4 -2 -4 125.19 9.2
-4 -2 -4 128.49 7.3
-4 -2 -4 122.59 9.4
4 2 4 150.78 16
4 2 4 124.69 8.1
-5 -2 -4 39.2 7.2
-5 -2 -4 46.5 7.5
5 2 4 34.4 11.2
-6 -2 -4 19.7 7.1
-6 -2 -4 28.8 8.1
6 2 4 28.6 15.6
6 2 4 17.5 12.3
-7 -2 -4 24.5 9.9
-7 -2 -4 23.9 9.2
7 2 4 25.1 16.5
7 2 4 26.3 19.5
-8 -2 -4 10.1 10.7
-8 -2 -4 11.3 11.8
8 2 4 -3 21
8 2 4 9.6 24
10 -3 -4 -25.1 16.5
10 -3 -4 -31.1 22.7
10 -3 -4 28.8 23
-10 3 4 11.5 9.5
-10 3 4 -3.6 7.9
9 -3 -4 23.2 15
9 -3 -4 29 18.1
9 -3 -4 1.8 16.6
-9 3 4 19.5 7.3
-9 3 4 16.4 6.5
8 -3 -4 37.9 14.6
8 -3 -4 20.5 11.2
8 -3 -4 9.2 14.9
-8 3 4 40.1 6.4
-8 3 4 28.6 5.9
7 -3 -4 -5.6 8
7 -3 -4 6.6 10
7 -3 -4 -5.4 10
-7 3 4 -1 3.8
-7 3 4 9.5 4
6 -3 -4 79.19 10.2
6 -3 -4 55.79 10.8
6 -3 -4 56.89 11.1
-6 3 4 56.19 6.2
-6 3 4 49.1 5.3
-6 3 4 56.49 6.4
-6 3 4 50.29 5.3
5 -3 -4 72.99 4.9
5 -3 -4 71.19 6.2
5 -3 -4 73.49 8.8
5 -3 -4 71.29 11
5 -3 -4 82.39 11.4
-5 3 4 67.09 5.9
-5 3 4 78.79 6.6
-5 3 4 71.89 5.5
-5 3 4 75.79 5.1
4 -3 -4 15.5 5.6
4 -3 -4 13.2 5.1
4 -3 -4 15.8 3
-4 3 4 10.7 2.7
3 -3 -4 167.28 10.8
3 -3 -4 164.48 7.7
3 -3 -4 164.88 10.9
-3 3 4 163.68 7.1
-3 3 4 170.08 7.7
-3 3 4 154.68 11.3
-3 3 4 143.99 11.9
2 -3 -4 134.69 8.9
2 -3 -4 118.39 6.2
2 -3 -4 113.29 5.4
2 -3 -4 129.09 10.1
-2 3 4 126.19 6.5
-2 3 4 121.69 8.9
-2 3 4 115.39 9.4
-2 3 4 124.79 5.7
1 -3 -4 -2.4 2
1 -3 -4 -1.4 4.4
1 -3 -4 -1.2 1.4
1 -3 -4 0.9 3.3
1 -3 -4 3.4 2.2
-1 3 4 0.1 1.3
-1 3 4 2 1.9
-1 3 4 1.1 4.4
-1 3 4 -0.3 3.4
-1 3 4 -3.4 3.5
0 -3 -4 155.78 8.7
0 -3 -4 148.79 7.2
0 -3 -4 149.88 9
0 -3 -4 161.48 5.6
0 3 4 166.78 7.6
0 3 4 137.19 10.3
0 3 4 149.29 8.3
0 3 4 150.08 9
0 3 4 161.68 5.6
-1 -3 -4 86.59 7.2
-1 -3 -4 88.89 7
-1 -3 -4 84.99 5.8
-1 -3 -4 84.79 5.8
1 3 4 89.89 7.1
1 3 4 67.89 8.3
1 3 4 83.69 5.9
-2 -3 -4 18.6 4.9
-2 -3 -4 17.1 4.1
-2 -3 -4 9.7 3.8
-2 -3 -4 15.6 3.7
2 3 4 17.8 5.7
-3 -3 -4 65.59 6.4
-3 -3 -4 55.59 6.8
-3 -3 -4 44.1 7.4
3 3 4 54.89 10.7
3 3 4 67.99 6.4
-4 -3 -4 52.49 8.5
-4 -3 -4 53.69 8.2
-4 -3 -4 59.69 8.1
4 3 4 50.59 7.4
4 3 4 56.69 11.6
-5 -3 -4 187.78 13.2
-5 -3 -4 200.98 13.9
5 3 4 228.28 23
-6 -3 -4 3.4 7.5
-6 -3 -4 6.5 8.5
6 3 4 3 16.4
6 3 4 -12 14.4
-7 -3 -4 -3.1 9.4
-7 -3 -4 -1.3 10.7
7 3 4 -7.6 19.6
7 3 4 12.8 22.5
-8 -3 -4 40.9 12.2
-8 -3 -4 38.6 14.3
8 3 4 65.49 25.6
8 3 4 26.5 29.6
10 -4 -4 10.9 22.5
-10 4 4 10.7 8.5
9 -4 -4 15.6 17.1
9 -4 -4 32.1 17.6
9 -4 -4 34.2 13.6
-9 4 4 17.3 8
-9 4 4 16.9 6.3
8 -4 -4 19.4 12.6
8 -4 -4 11.1 13.8
8 -4 -4 18.9 11
-8 4 4 7.3 5.6
-8 4 4 7 5.1
7 -4 -4 44.8 11.8
7 -4 -4 50.19 12.5
7 -4 -4 41.4 10.4
-7 4 4 38.1 6
-7 4 4 31.7 5.2
-7 4 4 36.8 5
6 -4 -4 20.9 8.8
6 -4 -4 27.5 4.4
6 -4 -4 15.1 8.4
-6 4 4 39.7 5.8
-6 4 4 28.3 4.1
5 -4 -4 26.6 7.2
5 -4 -4 8.5 7.3
-5 4 4 15.5 3.2
-5 4 4 9.3 3.1
4 -4 -4 26.5 6.9
4 -4 -4 25.9 6.6
-4 4 4 28.6 4.2
-4 4 4 23.2 4.1
3 -4 -4 0.3 4.5
3 -4 -4 12.5 6.1
-3 4 4 -0.6 6.6
-3 4 4 1.2 1.9
-3 4 4 3.4 2.6
2 -4 -4 299.87 10.6
2 -4 -4 293.97 14.6
2 -4 -4 317.07 15.1
-2 4 4 259.27 16.1
-2 4 4 294.57 12
-2 4 4 313.27 10.6
1 -4 -4 5.6 3.9
1 -4 -4 2.6 1.9
1 -4 -4 -1.7 1.8
1 -4 -4 -2 4.6
-1 4 4 0.5 2.4
-1 4 4 -0.2 1.6
-1 4 4 2.2 4
0 -4 -4 291.47 9.4
0 -4 -4 288.07 13.5
0 -4 -4 287.17 13.9
0 -4 -4 306.37 11.2
0 4 4 284.27 9.5
0 4 4 286.27 11.9
0 4 4 280.77 12.2
-1 -4 -4 41.2 6.5
-1 -4 -4 34.4 5.7
-1 -4 -4 31.8 5
1 4 4 39.2 7.2
1 4 4 42.5 5.9
-2 -4 -4 13.7 4.9
-2 -4 -4 11.4 4.2
-2 -4 -4 6.2 5.3
2 4 4 16.9 7.7
2 4 4 13.4 4.4
-3 -4 -4 0 5.1
-3 -4 -4 1.9 4.6
3 4 4 4.9 8.8
3 4 4 -3.3 4.2
-4 -4 -4 53.69 9.7
-4 -4 -4 60.59 8.9
4 4 4 82.29 9.1
4 4 4 58.59 13.1
-5 -4 -4 7.5 8.1
-5 -4 -4 12.1 7.3
5 4 4 22.5 16.8
-6 -4 -4 11.4 9.6
-6 -4 -4 8.9 9.4
6 4 4 -14.4 15.7
6 4 4 -4.8 20.6
-7 -4 -4 -1.3 10.4
-7 -4 -4 -23.7 12
7 4 4 -13.9 24.6
7 4 4 18 21.5
10 -5 -4 -11.1 22.6
10 -5 -4 6 21.5
-10 5 4 7.6 8.7
9 -5 -4 5 17.1
9 -5 -4 -15 15.7
-9 5 4 8.8 7
8 -5 -4 34.6 15.2
8 -5 -4 26.2 12.7
-8 5 4 14.4 5.1
-8 5 4 17.4 5.8
7 -5 -4 4.5 11.4
7 -5 -4 -2.8 10.3
-7 5 4 2.5 4.8
-7 5 4 2.3 4.1
6 -5 -4 15.8 9
6 -5 -4 7.9 9
-6 5 4 7 4.1
-6 5 4 9.8 3.9
5 -5 -4 -2.2 6.9
5 -5 -4 -8.1 7.2
-5 5 4 2.6 3.3
-5 5 4 -2.4 3
4 -5 -4 14.6 6.9
4 -5 -4 19.8 7.2
-4 5 4 16.9 3.2
-4 5 4 14.2 3.5
3 -5 -4 254.77 15.2
3 -5 -4 254.27 15.3
-3 5 4 259.67 10.4
-3 5 4 249.08 11.4
2 -5 -4 78.89 9.4
2 -5 -4 67.19 9.5
-2 5 4 74.99 5.2
-2 5 4 57.19 6.1
1 -5 -4 67.49 4.9
1 -5 -4 67.49 8.9
1 -5 -4 59.49 5
1 -5 -4 63.89 8.6
-1 5 4 63.09 6.3
-1 5 4 71.29 4.6
-1 5 4 59.49 7.5
0 -5 -4 138.29 10.8
0 -5 -4 138.99 6.5
0 -5 -4 146.49 7.5
0 -5 -4 141.79 10.2
0 5 4 140.59 9.7
0 5 4 145.49 8.5
0 5 4 144.79 6.3
-1 -5 -4 16.5 4.3
-1 -5 -4 13.7 5.6
-1 -5 -4 13.4 5.7
1 5 4 16 4.1
1 5 4 18.5 6.9
-2 -5 -4 10.8 5.2
-2 -5 -4 11.6 5.7
-2 -5 -4 11.4 6.6
2 5 4 24.9 8.8
2 5 4 9.9 4.5
-3 -5 -4 11.4 5.6
-3 -5 -4 22.6 7.1
3 5 4 20.6 11.1
3 5 4 27.4 5.8
-4 -5 -4 34.1 9.5
-4 -5 -4 28.2 8.2
4 5 4 24 6.6
4 5 4 33.6 18.1
-5 -5 -4 15.7 9.3
-5 -5 -4 11.9 9.4
5 5 4 20.2 19.4
-6 -5 -4 22.1 10.2
-6 -5 -4 25.1 11
6 5 4 -8.6 18.6
6 5 4 18.4 23
10 -6 -4 -19.5 22.8
-10 6 4 12.5 8.9
9 -6 -4 -7.8 17.6
9 -6 -4 33 17.4
-9 6 4 18.5 7.3
8 -6 -4 12.2 15
8 -6 -4 6.5 13.1
-8 6 4 33.8 6.7
-8 6 4 28 6.2
7 -6 -4 16.8 11.4
7 -6 -4 40.9 13.3
-7 6 4 33.9 6.1
-7 6 4 31.6 5.8
6 -6 -4 -5.6 9.2
6 -6 -4 4.7 9.8
-6 6 4 0.8 4.2
-6 6 4 7 4.1
5 -6 -4 28.2 9
5 -6 -4 34.3 9.5
-5 6 4 28 4.4
-5 6 4 47 7
4 -6 -4 8.5 6.8
4 -6 -4 15.5 7.8
-4 6 4 6.9 3.3
-4 6 4 16.4 4.5
3 -6 -4 201.28 15.1
3 -6 -4 209.68 14.4
-3 6 4 198.68 9.4
-3 6 4 201.68 11
2 -6 -4 189.58 13.8
2 -6 -4 198.78 13.4
-2 6 4 205.38 9
-2 6 4 195.88 10.8
1 -6 -4 5.9 6.1
1 -6 -4 16 5.8
1 -6 -4 15.1 3.7
-1 6 4 7.8 6
-1 6 4 17.2 4.2
-1 6 4 10.5 3.3
0 -6 -4 33.4 6.9
0 -6 -4 44.6 5.9
0 -6 -4 37.5 4.6
0 -6 -4 47.9 7.5
0 6 4 45.8 7.2
0 6 4 50.49 5.5
0 6 4 37 4.4
-1 -6 -4 8.1 6.3
-1 -6 -4 7.3 4.7
-1 -6 -4 0.1 5.6
1 6 4 0.2 8.1
1 6 4 3.9 4.5
-2 -6 -4 31.9 6.4
-2 -6 -4 21.5 8
-2 -6 -4 25.4 7.4
2 6 4 14.2 11.1
-3 -6 -4 3 8.4
-3 -6 -4 14.9 6.5
3 6 4 23 14.5
3 6 4 9.6 6.4
-4 -6 -4 60.19 10.3
-4 -6 -4 65.69 12
4 6 4 33.2 21.4
4 6 4 45.9 8.2
-5 -6 -4 3.4 9.4
-5 -6 -4 6.2 11
5 6 4 -34.3 21.7
-6 -6 -4 -15.2 11.4
-6 -6 -4 -9.6 12.8
6 6 4 7.6 26.9
6 6 4 15.9 23.2
9 -7 -4 -17.5 18.1
-9 7 4 9.4 7.8
8 -7 -4 55.79 18.2
-8 7 4 84.39 11.8
-8 7 4 84.09 11.8
7 -7 -4 21.2 13.6
-7 7 4 23.8 6.4
-7 7 4 20.7 6.2
6 -7 -4 -0.5 11.5
6 -7 -4 3.6 9.1
-6 7 4 2.1 5
-6 7 4 2.2 4.9
5 -7 -4 285.37 21.6
5 -7 -4 288.77 18.8
-5 7 4 282.77 13.4
-5 7 4 305.07 14.9
4 -7 -4 87.09 14.1
4 -7 -4 58.59 10
-4 7 4 38.3 5.2
-4 7 4 53.89 8.2
3 -7 -4 156.38 14.2
3 -7 -4 155.48 15.1
-3 7 4 146.79 8.9
-3 7 4 163.58 10.9
2 -7 -4 -2.6 6.6
2 -7 -4 2.1 6.3
-2 7 4 2.5 3.4
-2 7 4 -6.9 4.3
1 -7 -4 -1.5 6.4
1 -7 -4 16.2 7
-1 7 4 13 4.9
-1 7 4 9 3.4
0 -7 -4 -2.1 6.4
0 -7 -4 -0.3 4.5
0 -7 -4 -5.1 6.8
0 7 4 4.7 5
0 7 4 6.7 3.6
-1 -7 -4 9.9 5.3
-1 -7 -4 9.8 7.3
-1 -7 -4 10.7 7.8
1 7 4 -2 10.7
1 7 4 -1.7 5.5
-2 -7 -4 27.7 10.2
-2 -7 -4 48.1 11.3
-2 -7 -4 44.1 7.9
2 7 4 34.3 7.1
2 7 4 37.7 15.2
-3 -7 -4 62.89 11.1
-3 -7 -4 88.19 13.4
3 7 4 61.29 9.5
3 7 4 57.09 20.2
-4 -7 -4 7 10.9
-4 -7 -4 -3.2 8.7
4 7 4 -3 23.1
4 7 4 -10.2 8.1
-5 -7 -4 3.9 13.1
-5 -7 -4 9.5 10.9
5 7 4 -16.2 23.3
5 7 4 25.6 27.2
9 -8 -4 2.7 19.9
-9 8 4 4.3 8.8
-9 8 4 -9.2 9.8
8 -8 -4 27 17
-8 8 4 20.4 8.3
-8 8 4 12 7.2
7 -8 -4 24.2 16.2
7 -8 -4 -17.2 11.1
-7 8 4 30.8 7.4
-7 8 4 12.5 7.7
6 -8 -4 64.69 14.5
6 -8 -4 72.99 12.6
-6 8 4 100.09 9.9
-6 8 4 96.39 12.1
5 -8 -4 116.49 20.2
5 -8 -4 141.49 15.3
-5 8 4 112.39 12.2
-5 8 4 94.29 10.5
4 -8 -4 85.99 11.3
4 -8 -4 50.49 12.1
-4 8 4 66.49 10.6
-4 8 4 99.59 8.8
3 -8 -4 39.7 8.7
3 -8 -4 14.8 8.7
-3 8 4 33.2 7.2
-3 8 4 25.2 5.1
2 -8 -4 -0.2 8
2 -8 -4 18.4 7.9
-2 8 4 10.8 4.2
-2 8 4 11.4 6
1 -8 -4 32.7 9.9
1 -8 -4 72.39 11.9
-1 8 4 52.49 7.6
-1 8 4 57.49 7.1
0 -8 -4 3.5 7.8
0 -8 -4 -4 9.4
0 -8 -4 1.2 5.3
0 8 4 6.2 4
0 8 4 1.1 6.3
-1 -8 -4 6 9.8
-1 -8 -4 1 8.9
-1 -8 -4 3.2 6.4
1 8 4 22.6 15.7
1 8 4 -4 6.6
-2 -8 -4 5.2 7.7
-2 -8 -4 -2 11
-2 -8 -4 -6.5 9.9
2 8 4 9.7 8.4
2 8 4 17 18.3
-3 -8 -4 45.7 12.1
-3 -8 -4 47.2 10.6
3 8 4 30.1 22.9
3 8 4 25 10.9
-4 -8 -4 13.3 13.2
-4 -8 -4 22.7 11.3
4 8 4 -22.6 27.6
8 -9 -4 17.4 19.4
-8 9 4 -1.1 9.1
-8 9 4 -2.3 8
7 -9 -4 64.09 18.7
-7 9 4 52.29 9.7
-7 9 4 56.19 8.7
6 -9 -4 -0.3 10.7
6 -9 -4 -1.6 14.4
-6 9 4 17.6 7
-6 9 4 7.1 7.4
5 -9 -4 12 9.7
5 -9 -4 -6.3 12
-5 9 4 8.4 7.3
-5 9 4 -1.3 5.8
4 -9 -4 11.7 10.9
4 -9 -4 19.3 9
-4 9 4 6.7 6.8
-4 9 4 5.5 6.1
3 -9 -4 13.1 8.7
3 -9 -4 6.2 9.8
-3 9 4 2.9 5.2
-3 9 4 3.7 7.1
2 -9 -4 29.5 10.9
2 -9 -4 50.39 9.8
-2 9 4 32.4 6
-2 9 4 15 7.5
1 -9 -4 16.7 10.5
1 -9 -4 -2.1 10.2
-1 9 4 1 4.7
-1 9 4 -0.2 7.3
0 -9 -4 -13.1 6.6
0 -9 -4 -10.2 10.6
0 -9 -4 5.9 9.8
0 9 4 -8.7 16.5
0 9 4 -2.6 4.3
0 9 4 -2.5 7.5
-1 -9 -4 -1.1 7.9
-1 -9 -4 3.8 11.3
-1 -9 -4 19.5 13.1
1 9 4 9.6 8.7
1 9 4 -10.7 19.7
-2 -9 -4 19.5 10.1
-2 -9 -4 39.2 12.9
-2 -9 -4 12 14.6
2 9 4 2.1 22.2
2 9 4 16.2 10.7
-3 -9 -4 3.6 11.4
-3 -9 -4 2.9 13.2
3 9 4 -4.5 11
3 9 4 17.2 27.7
7 -10 -4 -18.3 18.1
-7 10 4 1.5 8
-7 10 4 -7.3 9.5
6 -10 -4 26.9 13
6 -10 -4 9 16
-6 10 4 11.4 9.6
-6 10 4 14.1 7.8
5 -10 -4 10.4 10.8
5 -10 -4 -9.1 14.2
-5 10 4 -1.6 7.8
-5 10 4 -7.2 8.6
4 -10 -4 4.1 11.7
-4 10 4 2.9 7.6
-4 10 4 11.4 9
3 -10 -4 3.8 12.1
3 -10 -4 4.4 10.8
-3 10 4 5.8 6.8
-3 10 4 0.4 8.3
2 -10 -4 39.6 11.6
2 -10 -4 22.2 12.2
-2 10 4 25.2 7.1
-2 10 4 32.6 9.3
1 -10 -4 38.6 13.1
1 -10 -4 74.39 14.2
-1 10 4 44.7 10.9
-1 10 4 65.49 9.7
0 -10 -4 14.9 13
0 -10 -4 5.8 12.8
0 10 4 -11.2 20.4
0 10 4 -8.1 8.8
-1 -10 -4 19 16.2
-1 -10 -4 26.6 13.4
1 10 4 28 26.6
1 10 4 8.5 10.1
-2 -10 -4 -19.1 19
-2 -10 -4 11.8 15
-2 -10 -4 14.7 12.2
2 10 4 0.7 12.8
2 10 4 50.29 30.2
6 -11 -4 15.5 18.3
-6 11 4 21.1 9.1
-6 11 4 15 11
5 -11 -4 1.6 15.2
5 -11 -4 17.7 20.5
-5 11 4 -3.9 10.2
-5 11 4 -9.7 8.5
4 -11 -4 30.9 14.8
4 -11 -4 43.5 12.6
3 -11 -4 11.9 12.3
3 -11 -4 -3.8 14.3
-3 11 4 27.8 8.5
-3 11 4 10.4 10.5
2 -11 -4 25.3 13.1
2 -11 -4 41.9 15.2
-2 11 4 9.8 7.6
-2 11 4 0.7 11.2
1 -11 -4 -1.6 14.9
1 -11 -4 40.4 14.8
-1 11 4 22.6 11
0 -11 -4 44.7 15.8
0 -11 -4 5 16
0 11 4 34.7 27.3
-1 12 -5 19.3 14.6
-1 12 -5 9.9 10.3
-1 12 -5 8.8 18.8
1 -12 5 20.3 16.7
-2 12 -5 32.8 10
2 -12 5 22.9 16.9
-3 12 -5 54.29 15.9
-3 12 -5 28.8 10.1
3 -12 5 37.7 17
-4 12 -5 17.5 15.8
-4 12 -5 22 9.7
4 -12 5 0.5 15.4
2 11 -5 30.6 12.3
2 11 -5 95.39 28.9
2 11 -5 81.19 44
2 11 -5 65.89 15
2 11 -5 40.9 22.8
1 11 -5 17.1 21.7
1 11 -5 55.29 36.3
1 11 -5 21.2 12.8
1 11 -5 2.1 21.8
1 11 -5 24.3 9.8
-1 -11 5 44 16.3
-1 -11 5 8.5 11.3
0 11 -5 20.4 25.7
0 11 -5 15.7 11.8
0 11 -5 14.4 9
0 11 -5 -6.7 18.7
0 -11 5 15.7 10.3
0 -11 5 24 15
-1 11 -5 19 11.8
-1 11 -5 -5 8.4
1 -11 5 -8.2 13.2
-2 11 -5 26.6 12.7
-2 11 -5 8.4 8
2 -11 5 -1 13.9
2 -11 5 -22.4 13.1
-3 11 -5 34.1 13.3
-3 11 -5 37.6 8.3
3 -11 5 37.2 13.6
3 -11 5 5.5 13.3
-4 11 -5 4.5 12.1
-4 11 -5 3.2 8
4 -11 5 -10.6 12.5
4 -11 5 13.8 13.1
-5 11 -5 3 11.5
-5 11 -5 4.1 8.1
5 -11 5 15.9 12.8
5 -11 5 -13.6 14.8
-6 11 -5 12.7 11.4
6 -11 5 37.7 16.6
6 -11 5 14.1 14.1
3 10 -5 79.69 40.6
3 10 -5 36.9 24.3
3 10 -5 35.2 26.1
-3 -10 5 43.4 11.6
2 10 -5 28.5 22.6
2 10 -5 3.7 8.9
2 10 -5 -2.4 19.1
2 10 -5 49.4 36.1
2 10 -5 -12.4 10.4
-2 -10 5 -1 9.5
1 10 -5 8.6 19.5
1 10 -5 18.8 17.2
1 10 -5 2.7 27.6
1 10 -5 19.2 8.5
1 10 -5 25.4 10.2
-1 -10 5 0.1 9
-1 -10 5 6.3 12
0 10 -5 3.7 14
0 10 -5 8 14.8
0 10 -5 -20.7 20
0 10 -5 5.8 9.5
0 10 -5 -11.5 7.8
0 -10 5 6.4 11
0 -10 5 8.7 12
0 -10 5 3.7 7.8
-1 10 -5 16.6 7.2
-1 10 -5 19 9.7
-1 10 -5 -11.6 11.5
1 -10 5 10.2 10.1
1 -10 5 11.4 10.7
-2 10 -5 38.5 7.5
-2 10 -5 23.1 11.2
2 -10 5 50.89 12.7
2 -10 5 28.6 10.2
-3 10 -5 63.39 11.5
-3 10 -5 63.39 8.8
3 -10 5 31.9 11
3 -10 5 38.6 10.3
-4 10 -5 14.3 6.8
-4 10 -5 25.3 10.3
4 -10 5 13.5 10.2
4 -10 5 3.4 11.2
-5 10 -5 5.3 9.1
-5 10 -5 9 7
5 -10 5 -11.6 12.7
5 -10 5 -5.1 9.8
-6 10 -5 2.2 7.5
-6 10 -5 17.7 9.5
6 -10 5 6 10.8
6 -10 5 24.5 14.7
-7 10 -5 -2.3 9
-7 10 -5 -12.2 7.6
7 -10 5 -5.5 16.6
7 -10 5 1 11.1
4 9 -5 16.4 21.7
4 9 -5 21.9 35.1
4 9 -5 -34.5 23.9
-4 -9 5 -8.7 10.7
3 9 -5 -0.2 18.1
3 9 -5 16.6 9.1
3 9 -5 3.4 8.4
3 9 -5 10 21.2
3 9 -5 62.59 30.5
2 9 -5 -4.6 7.6
2 9 -5 -15.5 7.9
2 9 -5 -3.8 16.4
2 9 -5 14.2 28.1
2 9 -5 -23.4 18.5
-2 -9 5 -0.2 7.8
-2 -9 5 12 9
1 9 -5 13.4 7.4
1 9 -5 36 15.8
1 9 -5 24.7 8.6
1 9 -5 41.7 19.9
1 9 -5 16.9 12.8
-1 -9 5 13.6 7.4
-1 -9 5 10.3 9.9
-1 -9 5 8.9 9.6
0 9 -5 8.2 10.6
0 9 -5 13.6 13.1
0 9 -5 20.1 16.1
0 9 -5 14.2 6.7
0 9 -5 11.4 8.6
0 -9 5 16.8 9.4
0 -9 5 7.7 6.3
0 -9 5 22.8 8.9
-1 9 -5 -14.1 9.9
-1 9 -5 -11.4 7.5
-1 9 -5 -0.8 6
1 -9 5 -2.2 8.5
1 -9 5 -3.1 8
-2 9 -5 9.5 5.9
-2 9 -5 4.2 8.1
2 -9 5 7.4 8.1
2 -9 5 2.3 9
-3 9 -5 11.4 5.5
-3 9 -5 7.9 7.4
3 -9 5 0.3 8
3 -9 5 5.8 7.3
-4 9 -5 -4.2 5.5
-4 9 -5 4.6 8.2
4 -9 5 0.5 8
4 -9 5 -1.4 9.1
-5 9 -5 -0.7 7.4
-5 9 -5 9.2 6.5
5 -9 5 -2.1 8.1
5 -9 5 5.1 10.6
-6 9 -5 1.1 6.9
-6 9 -5 -6.5 7
6 -9 5 3.5 14.1
6 -9 5 9.4 8.6
-7 9 -5 12.9 8.6
-7 9 -5 21.9 6.7
7 -9 5 -3.9 15.6
7 -9 5 -1.5 9.4
-8 9 -5 14.5 7.9
-8 9 -5 17.2 9.2
8 -9 5 -7.1 17.2
8 -9 5 -13.2 11.3
5 8 -5 33.9 32
5 8 -5 48.6 25.2
5 8 -5 37 22.8
-5 -8 5 31.5 11
4 8 -5 36.3 8.6
4 8 -5 88.59 22.1
4 8 -5 37.2 18.7
4 8 -5 15.7 27.8
-4 -8 5 35 9.9
-4 -8 5 48.8 6.4
3 8 -5 129.89 28.1
3 8 -5 87.59 21.2
3 8 -5 53.99 16.8
3 8 -5 66.69 8.7
3 8 -5 64.69 8.9
-3 -8 5 48.5 6.2
-3 -8 5 44.4 9.6
2 8 -5 39.4 12.8
2 8 -5 32 7.6
2 8 -5 22 6.7
2 8 -5 75.49 19.6
2 8 -5 41.7 14.3
-2 -8 5 28 9.1
-2 -8 5 26.8 7.5
-2 -8 5 34.7 5.5
-2 -8 5 27.7 7.2
1 8 -5 56.69 7.8
1 8 -5 74.99 14.8
1 8 -5 56.19 16
1 8 -5 56.39 11.8
1 8 -5 54.19 8.3
-1 -8 5 63.29 9
-1 -8 5 40.5 5.6
-1 -8 5 55.69 9.4
-1 -8 5 44.9 8.7
0 8 -5 30.4 12.1
0 8 -5 38.1 11.7
0 8 -5 18.5 6.4
0 8 -5 31.1 6
0 8 -5 14.6 8.8
0 -8 5 24.7 7.2
0 -8 5 25.1 5.9
0 -8 5 27.2 7.5
-1 8 -5 -4.2 8.1
-1 8 -5 -2.2 4.9
-1 8 -5 1.5 5.7
1 -8 5 5 6.3
1 -8 5 12.8 6.5
-2 8 -5 62.59 8.6
-2 8 -5 47.8 8.4
-2 8 -5 64.69 10.1
-2 8 -5 66.09 7.9
2 -8 5 76.99 10.5
2 -8 5 62.09 10.7
-3 8 -5 18.5 4.9
-3 8 -5 24.8 7.5
3 -8 5 17.5 7.8
3 -8 5 17.5 6.6
-4 8 -5 9.1 6.8
-4 8 -5 0.5 4.5
4 -8 5 5.9 6.5
4 -8 5 -10.2 8
-5 8 -5 -3.1 4.8
-5 8 -5 -0.4 7.2
5 -8 5 -3.4 7.6
5 -8 5 -2.2 9
-6 8 -5 -11.6 6.2
-6 8 -5 7.1 5.6
6 -8 5 4.2 11
6 -8 5 -5.2 8.5
-7 8 -5 2 7.4
-7 8 -5 5.6 5.7
7 -8 5 6.8 9.1
7 -8 5 35.2 14.4
-8 8 -5 77.79 9.3
-8 8 -5 56.69 9.9
8 -8 5 76.29 12.4
8 -8 5 72.19 19.2
6 7 -5 -11.9 28.9
6 7 -5 -8.4 25
6 7 -5 -46.4 22.8
-6 -7 5 -9.9 10.3
5 7 -5 51.49 27.1
5 7 -5 -18.6 18.3
5 7 -5 6.1 8.2
5 7 -5 -13.2 21.6
-5 -7 5 5.4 9.2
-5 -7 5 10.4 5.7
4 7 -5 47.6 20.1
4 7 -5 55.69 25
4 7 -5 69.89 18.1
4 7 -5 38.9 6.4
4 7 -5 48.9 8.7
-4 -7 5 45 5.8
-4 -7 5 42.7 9.3
3 7 -5 44.6 7.8
3 7 -5 50.49 15.6
3 7 -5 32.6 18.5
3 7 -5 48.8 7.5
3 7 -5 49.8 13.7
-3 -7 5 51.69 8.2
-3 -7 5 40.1 5.4
2 7 -5 16.5 13.9
2 7 -5 -9.8 10.4
2 7 -5 5 9.9
2 7 -5 -2.2 5.4
2 7 -5 -9.2 5.8
-2 -7 5 -2.7 3.8
-2 -7 5 -2.1 6.3
1 7 -5 35.4 5.8
1 7 -5 26.9 6.1
1 7 -5 39.8 11.4
1 7 -5 44.5 12.9
1 7 -5 37.4 9.1
-1 -7 5 26.9 6.6
-1 -7 5 33.5 6.2
-1 -7 5 36.7 4.9
-1 -7 5 40.2 7
0 7 -5 91.39 16.2
0 7 -5 87.19 13
0 7 -5 88.89 10.2
0 7 -5 65.49 8.4
0 -7 5 75.19 9.7
0 -7 5 72.89 7.5
0 -7 5 83.49 9.5
0 -7 5 79.99 7.2
-1 7 -5 45.9 8.6
-1 7 -5 35.2 5
1 -7 5 47.6 7
1 -7 5 40.9 6.5
-2 7 -5 155.88 8.5
-2 7 -5 164.68 9.7
-2 7 -5 160.68 13
2 -7 5 150.68 13.1
2 -7 5 148.69 11.4
2 -7 5 153.58 11.2
-3 7 -5 73.89 7.1
3 -7 5 71.19 9.3
3 -7 5 86.19 10.8
3 -7 5 70.69 9.2
-4 7 -5 13.7 4
4 -7 5 8.1 7.5
4 -7 5 12.8 5.6
-5 7 -5 11.4 4.4
5 -7 5 -6 6
5 -7 5 4.1 8.4
-6 7 -5 24.6 7
-6 7 -5 33 6.5
6 -7 5 25.7 7.6
6 -7 5 34.1 11.3
-7 7 -5 31.3 6.2
-7 7 -5 13.4 7.1
7 -7 5 24.4 9.1
7 -7 5 18.1 14
-8 7 -5 8.7 6.2
-8 7 -5 1.1 7.4
8 -7 5 -3.8 15.7
8 -7 5 4.1 9.2
-9 7 -5 96.89 13.3
9 -7 5 91.19 22.1
7 6 -5 12.6 28.1
7 6 -5 2.8 24
7 6 -5 9.6 28.8
-7 -6 5 2.6 10.9
6 6 -5 58.19 20.2
6 6 -5 41.7 24.6
6 6 -5 88.99 24.4
-6 -6 5 30.5 9.5
5 6 -5 15.4 18.1
5 6 -5 -5.2 17.5
5 6 -5 -14.9 19.8
-5 -6 5 8.4 4.8
-5 -6 5 -1.7 7.5
4 6 -5 76.19 17
4 6 -5 89.69 21.2
4 6 -5 63.39 14.9
-4 -6 5 50.19 6
-4 -6 5 62.89 9.3
3 6 -5 110.89 17.2
3 6 -5 118.49 9.9
3 6 -5 120.39 19.3
3 6 -5 103.19 14.8
-3 -6 5 117.79 10
-3 -6 5 106.19 7.7
-3 -6 5 107.09 9.6
2 6 -5 146.69 16
2 6 -5 192.58 19.9
2 6 -5 148.49 10.3
2 6 -5 134.59 15.5
-2 -6 5 126.89 9.9
-2 -6 5 142.09 8
-2 -6 5 127.59 9.2
1 6 -5 14.7 4.7
1 6 -5 11 8.5
1 6 -5 13.2 7.9
1 6 -5 11 7.6
-1 -6 5 10.5 3.2
-1 -6 5 3.7 5.2
-1 -6 5 7.1 3.9
-1 -6 5 2.5 4.4
0 6 -5 68.79 6.4
0 6 -5 77.39 7.1
0 6 -5 67.49 11.5
0 6 -5 53.39 8
0 -6 5 66.99 7.5
0 -6 5 74.39 5.7
0 -6 5 55.99 7.6
-1 6 -5 8 3.5
-1 6 -5 9.5 5.7
-1 6 -5 23.7 6.5
-1 6 -5 3 3.8
1 -6 5 -4.5 6.8
1 -6 5 1.1 2.8
1 -6 5 6.8 4.6
1 -6 5 3.9 3.9
-2 6 -5 18.3 3.8
-2 6 -5 12.7 3.5
-2 6 -5 17.4 6.8
-2 6 -5 6.7 6.9
2 -6 5 15 5.2
2 -6 5 3.8 6.4
2 -6 5 20.6 4.6
-3 6 -5 17.7 3.6
-3 6 -5 29.4 7.2
3 -6 5 15.9 5.8
3 -6 5 8.7 6.7
3 -6 5 19 4.8
-4 6 -5 -2.2 3.1
-4 6 -5 -2 5.2
4 -6 5 -3.9 4.2
4 -6 5 -0.3 6.2
4 -6 5 -0.1 8
-5 6 -5 2.2 4.3
-5 6 -5 4.5 3.5
5 -6 5 5.3 5
5 -6 5 -11.2 7.5
-6 6 -5 51.49 7.2
-6 6 -5 50.89 7.4
6 -6 5 38.6 11.7
6 -6 5 59.49 8.2
-7 6 -5 13 6.3
-7 6 -5 4.5 5.1
7 -6 5 4.2 6.5
7 -6 5 -2.2 12.6
-8 6 -5 12.2 5.7
-8 6 -5 0.5 6.5
-8 6 -5 4.5 5.8
8 -6 5 -5.5 7.9
8 -6 5 9 17
-9 6 -5 -1.1 6.8
9 -6 5 15 19.1
7 5 -5 -16.5 21.6
7 5 -5 4.5 23.7
7 5 -5 -9 21
-7 -5 5 3.1 9.8
6 5 -5 29.7 20
6 5 -5 -15.4 18.3
6 5 -5 11.9 17.7
-6 -5 5 -0.8 4.8
5 5 -5 20.2 13.5
5 5 -5 7.3 18.8
5 5 -5 -4.8 15.2
-5 -5 5 -0.4 6.8
-5 -5 5 4.8 4.2
4 5 -5 14.5 10.3
4 5 -5 39.3 13.7
4 5 -5 21 10.8
-4 -5 5 15.5 3.8
-4 -5 5 26 6.5
3 5 -5 3.5 4.2
3 5 -5 16.7 11.3
3 5 -5 10.8 8.1
3 5 -5 1.9 7.7
3 5 -5 9.6 4.9
-3 -5 5 0.2 4.3
-3 -5 5 3.3 4.7
-3 -5 5 6.7 3.1
2 5 -5 69.99 11.6
2 5 -5 70.59 11.3
2 5 -5 75.59 12.5
-2 -5 5 58.89 5.2
-2 -5 5 62.79 7.1
-2 -5 5 67.19 6.6
1 5 -5 2.8 4.2
1 5 -5 8.3 7.1
1 5 -5 6.8 6.2
1 5 -5 6.2 5
1 5 -5 3.5 4.3
-1 -5 5 3 3.8
-1 -5 5 10.8 2.6
-1 -5 5 3.1 3.2
0 5 -5 113.99 10.6
0 5 -5 101.59 8.2
0 5 -5 111.19 7
0 5 -5 107.89 7.5
0 -5 5 106.49 6.1
0 -5 5 113.89 7.5
0 -5 5 109.09 7.4
-1 5 -5 416.06 15.2
-1 5 -5 412.16 14.4
-1 5 -5 424.46 18.1
-1 5 -5 419.46 16.5
1 -5 5 427.86 15.3
1 -5 5 402.76 17.5
1 -5 5 432.06 16.3
1 -5 5 427.16 14.4
-2 5 -5 118.49 9.5
-2 5 -5 151.28 11
-2 5 -5 137.59 7.5
2 -5 5 126.59 8.3
2 -5 5 132.79 9.2
2 -5 5 113.09 10
-3 5 -5 3 2.5
-3 5 -5 8.5 6.3
-3 5 -5 -1.6 6.4
3 -5 5 9.7 5.2
3 -5 5 -0.9 6
3 -5 5 4.6 3.6
-4 5 -5 32.2 6.4
-4 5 -5 27.5 4.2
4 -5 5 32.7 7.1
4 -5 5 10.6 8.6
4 -5 5 26.3 5.2
-5 5 -5 11.6 4.2
-5 5 -5 4.5 3.3
5 -5 5 2.1 7.4
5 -5 5 7 4.9
-6 5 -5 67.09 7.2
-6 5 -5 63.39 7.9
6 -5 5 66.79 9.7
6 -5 5 107.49 15.9
-7 5 -5 64.39 7.7
-7 5 -5 49.8 8.6
7 -5 5 52.19 8.2
7 -5 5 58.29 13.9
-8 5 -5 10 6.2
-8 5 -5 43.9 8.3
-8 5 -5 30 5.8
8 -5 5 8.4 15.5
8 -5 5 21.2 7.6
-9 5 -5 18.7 6.3
-9 5 -5 34 8.2
9 -5 5 17.2 19.6
8 4 -5 -3.7 26.2
8 4 -5 -38.6 23.3
8 4 -5 -38 23.1
-8 -4 5 -10.4 10.4
7 4 -5 6.8 21.6
7 4 -5 10.1 19.7
6 4 -5 84.39 19.6
6 4 -5 54.89 18.4
-6 -4 5 81.29 7.8
-6 -4 5 64.59 10.8
5 4 -5 59.59 13.7
5 4 -5 69.09 14.2
5 4 -5 77.59 16.6
-5 -4 5 62.19 6.6
-5 -4 5 62.69 8.7
4 4 -5 7.1 10.8
4 4 -5 17.3 8.7
4 4 -5 21 9.3
-4 -4 5 10 4.6
-4 -4 5 5.7 3.1
3 4 -5 1.5 8.4
3 4 -5 -3.5 3.4
3 4 -5 -4.3 7
3 4 -5 -7.1 6.6
-3 -4 5 0.9 3.8
-3 -4 5 0 2.6
-3 -4 5 -0.9 3.1
2 4 -5 98.49 8
2 4 -5 107.59 6.6
2 4 -5 89.99 10.3
2 4 -5 97.39 10.3
2 4 -5 94.09 13.3
-2 -4 5 110.99 7
-2 -4 5 104.39 6
-2 -4 5 99.49 6.8
1 4 -5 143.59 9.3
1 4 -5 159.08 11.5
1 4 -5 144.09 7.9
1 4 -5 151.38 7.4
1 4 -5 147.89 12.2
1 4 -5 152.38 7.8
-1 -4 5 167.78 7.8
-1 -4 5 150.48 6.9
-1 -4 5 151.48 7.7
0 4 -5 30 4
0 4 -5 27.5 3.8
0 4 -5 26.2 4
0 4 -5 30.4 6.3
0 -4 5 25.6 3.3
0 -4 5 28.4 3.5
0 -4 5 33.1 4.3
0 -4 5 33.1 6
-1 4 -5 47.6 5.4
-1 4 -5 54.99 7.1
-1 4 -5 41 4.7
1 -4 5 43.6 4.6
1 -4 5 42 3.7
1 -4 5 42.1 7.2
1 -4 5 45.7 4.9
-2 4 -5 10.1 2.7
-2 4 -5 10.7 4.3
-2 4 -5 24.8 6.5
2 -4 5 11.7 3.7
2 -4 5 9.9 2.4
2 -4 5 6.9 3.1
2 -4 5 10.8 5
-3 4 -5 4.2 5.1
-3 4 -5 -3.4 5.7
-3 4 -5 -1.1 2.5
3 -4 5 3.8 5.3
3 -4 5 -1.1 4.2
3 -4 5 -0.1 2.8
-4 4 -5 44.7 4.7
-4 4 -5 55.69 7.3
4 -4 5 53.69 8.3
4 -4 5 48.2 6.2
-5 4 -5 -0.4 4.2
-5 4 -5 4.4 2.9
5 -4 5 -4 4
5 -4 5 2.3 7.3
-6 4 -5 6.9 4.6
-6 4 -5 -3.7 3.2
6 -4 5 -5.8 9
6 -4 5 -1.6 5
-7 4 -5 36.1 6.8
-7 4 -5 34.1 4.9
7 -4 5 26.2 6.2
7 -4 5 3 11.6
-8 4 -5 54.99 9.6
8 -4 5 44.9 6.8
8 -4 5 26.1 16.3
-9 4 -5 35.2 9.7
9 -4 5 41 20.4
8 3 -5 6.3 21.5
8 3 -5 -7.4 22.6
-8 -3 5 3.7 9.2
7 3 -5 -9.6 17.2
7 3 -5 8.2 19.8
-7 -3 5 -1.5 5.1
-7 -3 5 -7.2 7.3
6 3 -5 159.18 22.7
6 3 -5 143.19 25.5
-6 -3 5 128.89 9
-6 -3 5 110.49 11.3
5 3 -5 -3.8 9.8
5 3 -5 9.4 11.3
5 3 -5 -2.7 8
-5 -3 5 -4 3.2
-5 -3 5 -0.8 4.4
4 3 -5 7.7 7.3
4 3 -5 26.7 7.4
4 3 -5 16.9 10
-4 -3 5 14 4.1
-4 -3 5 12.3 2.9
3 3 -5 43.1 9.1
3 3 -5 36.2 6.8
3 3 -5 27.9 5.8
3 3 -5 47 8.6
3 3 -5 41.6 4.9
-3 -3 5 33.6 4.1
-3 -3 5 42.9 4.3
-3 -3 5 38.9 6.9
-3 -3 5 36.1 5.2
2 3 -5 235.18 13.4
2 3 -5 244.78 10.2
2 3 -5 234.28 10.4
2 3 -5 240.18 15
2 3 -5 251.47 12.5
2 3 -5 227.68 9.2
2 3 -5 237.38 9.5
-2 -3 5 233.38 10.1
-2 -3 5 245.58 9
-2 -3 5 241.18 11.3
-2 -3 5 237.08 14.8
1 3 -5 3 2.2
1 3 -5 1.7 3.7
1 3 -5 5.5 2.4
1 3 -5 3.3 2.5
1 3 -5 0.6 4.6
1 3 -5 -0.1 1.9
1 3 -5 1.2 2.8
1 3 -5 1.9 2.4
-1 -3 5 4.6 4.7
-1 -3 5 4.8 2.1
-1 -3 5 4.1 5.1
-1 -3 5 3.7 1.7
0 3 -5 45.4 3.5
0 3 -5 53.19 6.5
0 3 -5 49.9 4.6
0 -3 5 44.8 4.3
0 -3 5 47 3.6
0 -3 5 39.7 6.6
-1 3 -5 3.5 2.3
-1 3 -5 11.5 4.5
-1 3 -5 4.8 2.5
-1 3 -5 3.2 1.6
1 -3 5 1.4 1.6
1 -3 5 1 4.1
1 -3 5 2.4 2.2
-2 3 -5 225.18 8.4
-2 3 -5 224.18 9.1
-2 3 -5 225.28 12.3
-2 3 -5 220.58 10.9
-2 3 -5 206.18 9.9
2 -3 5 224.78 10.1
2 -3 5 222.88 11.6
2 -3 5 225.08 8.4
2 -3 5 241.88 10
-3 3 -5 125.99 10.6
-3 3 -5 132.69 6.6
-3 3 -5 125.99 6.5
-3 3 -5 137.49 8.5
3 -3 5 143.09 9.8
3 -3 5 131.59 7.6
3 -3 5 111.79 10.8
-4 3 -5 78.29 7.9
-4 3 -5 81.39 5.5
4 -3 5 82.59 7.1
4 -3 5 96.29 10.9
-5 3 -5 28.4 3.7
-5 3 -5 36.8 6.5
5 -3 5 34.3 5
5 -3 5 37.5 9.1
-6 3 -5 7.3 3.2
-6 3 -5 3.5 5.2
6 -3 5 2 4.6
6 -3 5 17.8 10.4
-7 3 -5 0.9 5.9
-7 3 -5 8.8 3.8
7 -3 5 2.6 12.9
7 -3 5 0.7 5.5
-8 3 -5 37.9 5.2
-8 3 -5 45.2 9.6
8 -3 5 49.9 20.1
-9 3 -5 8.7 9
9 -3 5 13.6 20.1
9 2 -5 26.1 22.9
9 2 -5 29.9 21.8
9 2 -5 38.8 25.6
-9 -2 5 26.3 11
8 2 -5 18.7 19.8
8 2 -5 8.5 22.1
-8 -2 5 10.7 9.3
-8 -2 5 1.1 6
7 2 -5 7 16.8
7 2 -5 -4.4 17.1
-7 -2 5 -2.6 6.9
-7 -2 5 -2.9 4.5
6 2 -5 35.6 13.7
6 2 -5 45.4 13
-6 -2 5 52.09 6.5
-6 -2 5 40.5 6.6
5 2 -5 19.4 9.6
5 2 -5 10.5 9.6
5 2 -5 1.4 7.3
-5 -2 5 4.2 3
-5 -2 5 3.6 4.2
4 2 -5 56.89 10.1
4 2 -5 54.09 9.2
4 2 -5 49.7 9
-4 -2 5 54.99 5.8
-4 -2 5 54.79 4.9
3 2 -5 167.78 11.9
3 2 -5 150.88 7.5
3 2 -5 184.08 14.4
3 2 -5 173.48 12.1
-3 -2 5 156.68 7.1
-3 -2 5 162.68 8.4
-3 -2 5 161.78 11.2
2 2 -5 269.87 15.6
2 2 -5 324.87 11
2 2 -5 343.97 15.5
2 2 -5 310.97 11.9
2 2 -5 336.87 11.2
2 2 -5 335.37 13.6
-2 -2 5 323.77 13
-2 -2 5 321.87 16
-2 -2 5 324.47 11.9
-2 -2 5 335.87 11.1
-2 -2 5 298.67 10.9
1 2 -5 4.2 1.9
1 2 -5 3.4 1.5
1 2 -5 4.8 3.9
1 2 -5 4.3 2
1 2 -5 6 3.9
-1 -2 5 2.6 4.7
-1 -2 5 5.6 3.7
-1 -2 5 2.6 1.7
-1 -2 5 4.8 1.6
0 2 -5 7.2 2.9
0 2 -5 6.4 3.2
0 2 -5 5.2 1.9
0 -2 5 5.4 3.6
0 -2 5 4.3 1.7
0 -2 5 4.3 1.5
0 -2 5 3.6 3.6
-1 2 -5 208.28 10.9
-1 2 -5 187.68 8.2
-1 2 -5 200.68 7.2
1 -2 5 189.68 10.1
1 -2 5 201.08 7.3
1 -2 5 201.68 8.4
-2 2 -5 795.42 23.9
-2 2 -5 807.02 23.2
-2 2 -5 828.42 26.1
-2 2 -5 839.52 26.9
-2 2 -5 797.12 24.8
2 -2 5 814.62 23.3
2 -2 5 806.72 25.9
2 -2 5 783.02 27.3
-3 2 -5 224.98 10.2
-3 2 -5 246.68 13.2
-3 2 -5 234.08 8.5
-3 2 -5 236.18 11.4
-3 2 -5 245.58 9
3 -2 5 239.08 10.3
3 -2 5 228.78 13.3
-4 2 -5 5 3.4
-4 2 -5 2.8 2.2
-4 2 -5 0.7 3.8
-4 2 -5 0.3 2
4 -2 5 -2.5 3.2
4 -2 5 9.9 6.5
-5 2 -5 32.1 4.5
-5 2 -5 47.1 7.4
5 -2 5 42.6 6.6
5 -2 5 28.3 4.9
-6 2 -5 64.49 9.1
-6 2 -5 49.7 5.9
6 -2 5 61.49 6.4
6 -2 5 69.09 13.5
-7 2 -5 49.8 6.4
-7 2 -5 68.59 9.9
7 -2 5 62.79 16.8
-8 2 -5 23.9 8.1
8 -2 5 4.5 17.5
8 -2 5 9.3 16.5
-9 2 -5 14.8 9.6
9 -2 5 -0.1 21.7
9 1 -5 -8 21.2
9 1 -5 -18.5 18.5
9 1 -5 27.6 22.9
-9 -1 5 -6.2 9.6
-9 -1 5 9.9 7.1
8 1 -5 0.8 19.4
8 1 -5 -16.5 18.3
-8 -1 5 4.5 5.5
-8 -1 5 3.4 7.5
7 1 -5 -20.3 14
7 1 -5 2 12.8
-7 -1 5 4 4.2
-7 -1 5 5 6
6 1 -5 21.9 12.3
6 1 -5 10.1 10.5
-6 -1 5 19.2 4.1
-6 -1 5 18.4 5.1
5 1 -5 5 8.1
5 1 -5 6.3 9.4
5 1 -5 16.7 7.5
-5 -1 5 8 3
-5 -1 5 10.4 4
4 1 -5 97.29 9.7
4 1 -5 101.29 11.5
4 1 -5 112.69 12.6
-4 -1 5 100.09 6.7
-4 -1 5 93.59 6
3 1 -5 221.18 9.1
3 1 -5 238.88 15
3 1 -5 219.48 10
3 1 -5 243.78 13.2
3 1 -5 238.78 13
3 1 -5 244.38 8.6
-3 -1 5 241.98 8.6
-3 -1 5 248.18 10.1
-3 -1 5 251.57 9.2
-3 -1 5 251.37 13
2 1 -5 -1.8 3
2 1 -5 5.6 1.8
2 1 -5 4.3 2
2 1 -5 6.6 2.3
2 1 -5 0.5 3.5
2 1 -5 7 4.8
-2 -1 5 3.9 1.7
-2 -1 5 5 1.7
-2 -1 5 10.2 5.3
-2 -1 5 6.1 3.2
-2 -1 5 3.7 4
1 1 -5 6.7 1.5
1 1 -5 5.6 3.2
1 1 -5 4.5 1.7
1 1 -5 7 3.5
-1 -1 5 1 3.9
-1 -1 5 5.8 1.7
-1 -1 5 1.8 3.5
-1 -1 5 6 1.4
0 1 -5 20.3 2.8
0 1 -5 21.6 2.4
0 1 -5 28.8 5.2
0 1 -5 32.3 4.5
0 -1 5 29.4 5
0 -1 5 22 2.3
0 -1 5 23.1 3.1
0 -1 5 22.7 3.8
-1 1 -5 8.6 1.9
-1 1 -5 9.9 2.4
-1 1 -5 13 4.9
-1 1 -5 11.5 1.6
-1 1 -5 18 3.5
1 -1 5 11.7 1.8
1 -1 5 4.7 3.4
1 -1 5 15.4 4.3
1 -1 5 11.9 2.4
1 -1 5 11.4 2.5
1 -1 5 10.6 1.6
-2 1 -5 31.9 5.2
-2 1 -5 27.2 3.3
-2 1 -5 39.5 2.6
-2 1 -5 31 5.1
-2 1 -5 30.2 3.8
2 -1 5 39.8 6.1
2 -1 5 31.6 4.2
2 -1 5 27.3 5.8
2 -1 5 33.3 2.7
-3 1 -5 678.13 19.4
-3 1 -5 674.73 21.5
-3 1 -5 722.63 20.8
-3 1 -5 711.83 23.1
-3 1 -5 724.53 19.8
-3 1 -5 689.33 25.3
3 -1 5 586.74 25.1
3 -1 5 624.04 21.3
-4 1 -5 61.89 6.5
-4 1 -5 64.99 6
-4 1 -5 60.79 6.8
-4 1 -5 72.09 4
-4 1 -5 70.89 4.2
4 -1 5 74.49 7.7
4 -1 5 76.19 6.2
4 -1 5 61.89 10.8
-5 1 -5 49.3 4.4
-5 1 -5 49.2 7.7
-5 1 -5 44.2 6.7
-5 1 -5 37.6 3.9
5 -1 5 39.9 10.3
5 -1 5 58.89 10.4
5 -1 5 42.3 6.6
-6 1 -5 86.39 9.7
-6 1 -5 94.39 10.5
6 -1 5 95.29 15.9
6 -1 5 104.19 15.1
6 -1 5 88.69 8.6
-7 1 -5 14 7.8
7 -1 5 1.2 16.6
7 -1 5 25.7 14.3
-8 1 -5 2.7 8
8 -1 5 -15.8 19.6
8 -1 5 -7.2 18.3
-9 1 -5 35.5 10.7
9 -1 5 71.19 25.5
9 -1 5 11.7 25.4
9 0 -5 0.3 16.6
9 0 -5 -27.7 21.3
9 0 -5 18.7 20.3
-9 0 5 6.3 9.5
-9 0 5 10.7 7.2
8 0 -5 12.6 16.4
8 0 -5 27.2 16.7
-8 0 5 0 4.9
-8 0 5 6.9 6.8
7 0 -5 243.98 25.5
7 0 -5 243.48 25.2
-7 0 5 272.97 12.7
-7 0 5 263.77 14.1
6 0 -5 27 8.5
6 0 -5 42.7 12.4
6 0 -5 31.7 10.9
-6 0 5 27.9 4.4
-6 0 5 34.7 6.4
5 0 -5 418.26 22.3
5 0 -5 414.46 20
5 0 -5 413.76 23.9
-5 0 5 412.76 15.9
-5 0 5 407.26 14.8
4 0 -5 152.88 13.1
4 0 -5 129.19 10.3
4 0 -5 143.99 12
-4 0 5 137.79 7.4
-4 0 5 146.49 7.2
3 0 -5 6.7 4.2
3 0 -5 -0.7 1.8
3 0 -5 -1.2 1.8
3 0 -5 -1.5 3.9
3 0 -5 0 2.2
3 0 -5 1.4 5
-3 0 5 -11.9 6.1
-3 0 5 0 1.8
-3 0 5 0.7 4.3
-3 0 5 3 1.8
-3 0 5 -1 2
2 0 -5 20.4 5.1
2 0 -5 18.7 3
2 0 -5 11.2 2.8
2 0 -5 17.6 2.6
2 0 -5 21.4 4.5
2 0 -5 17.7 2.2
-2 0 5 21.2 4.5
-2 0 5 16.9 5.4
-2 0 5 19.5 2.5
-2 0 5 16 2.3
-2 0 5 21.1 3.9
1 0 -5 580.04 20.8
1 0 -5 569.34 17.2
1 0 -5 549.65 20.2
1 0 -5 590.84 17.7
1 0 -5 595.94 18
-1 0 5 590.64 18.1
-1 0 5 610.54 17.3
-1 0 5 614.74 18.2
-1 0 5 527.85 20.5
-1 0 5 598.24 20.6
0 0 -5 34.3 5.7
0 0 -5 27.2 3.3
0 0 -5 26.5 2.7
0 0 -5 26.6 2.5
0 0 5 29.1 3.3
0 0 5 31.3 2.3
0 0 5 25.3 4.4
0 0 5 30.1 3.4
0 0 5 39.7 5
-1 0 -5 68.69 3.4
-1 0 -5 65.39 7
-1 0 -5 70.59 5.9
-1 0 -5 67.49 4.7
1 0 5 70.29 3.4
1 0 5 77.19 5
1 0 5 70.69 7.4
1 0 5 73.49 4.7
1 0 5 60.59 5.7
1 0 5 67.49 6.4
-2 0 -5 315.17 11.6
-2 0 -5 293.67 13.1
-2 0 -5 305.57 12.7
-2 0 -5 302.77 11.3
2 0 5 300.07 12.4
2 0 5 318.57 11.6
2 0 5 271.07 14
2 0 5 326.57 14.5
2 0 5 312.87 12
-3 0 -5 40.8 5
-3 0 -5 37.7 7.2
-3 0 -5 30.8 4.7
-3 0 -5 36.4 4.8
3 0 5 37.2 4.7
3 0 5 47 6.8
3 0 5 32.6 6.3
3 0 5 36.8 5.7
-4 0 -5 3.9 4.2
-4 0 -5 3.3 3.6
-4 0 -5 2.7 3.9
4 0 5 7.8 3.6
4 0 5 1.2 6.3
-5 0 -5 -5.4 4.7
-5 0 -5 4.3 4.5
-5 0 -5 11.1 5
5 0 5 11.1 9.4
5 0 5 -0.7 4
-6 0 -5 67.89 9.4
-6 0 -5 57.39 10
6 0 5 75.89 14.6
6 0 5 54.29 12.2
-7 0 -5 5.9 8.1
-7 0 -5 -10 7.7
7 0 5 11 14.2
7 0 5 8.8 16.7
-8 0 -5 12.1 9.5
8 0 5 -1.5 20
8 0 5 -4.5 20.9
10 -1 -5 23.7 23.8
10 -1 -5 10.8 19.1
10 -1 -5 23.8 24.9
-10 1 5 2.4 8.1
-10 1 5 -8.8 10.9
9 -1 -5 -10.4 15
9 -1 -5 21.6 19.6
9 -1 -5 9.9 19
-9 1 5 10.1 8.5
-9 1 5 13.2 6.7
8 -1 -5 73.19 19.7
8 -1 -5 97.19 21.4
8 -1 -5 80.19 15.7
-8 1 5 68.79 9.6
-8 1 5 97.59 10.5
7 -1 -5 274.17 24.6
7 -1 -5 347.97 21.5
7 -1 -5 305.97 25
-7 1 5 298.17 13.6
-7 1 5 315.97 14.6
6 -1 -5 14.3 9.5
6 -1 -5 6.9 10.2
6 -1 -5 11.2 7.2
-6 1 5 7.9 4.1
-6 1 5 10.1 3.3
5 -1 -5 19.5 7.4
5 -1 -5 21.5 8.6
5 -1 -5 19.3 6.3
-5 1 5 18.3 3
-5 1 5 20.1 3.7
4 -1 -5 169.28 7.1
4 -1 -5 173.48 10.8
4 -1 -5 171.08 12.8
4 -1 -5 171.98 8.1
4 -1 -5 166.78 13.9
-4 1 5 174.38 7.3
-4 1 5 181.18 8.1
-4 1 5 176.48 7.9
3 -1 -5 2.3 2.1
3 -1 -5 1.6 4.3
3 -1 -5 0.2 3.4
3 -1 -5 3.7 3.8
3 -1 -5 -1.7 2.1
3 -1 -5 -1.1 1.9
-3 1 5 -0.9 1.4
-3 1 5 5.1 6.5
-3 1 5 2.6 1.7
-3 1 5 -2 4.6
2 -1 -5 66.19 5.9
2 -1 -5 80.79 6.1
2 -1 -5 65.19 4.1
2 -1 -5 72.99 7.8
2 -1 -5 74.49 4.4
-2 1 5 62.89 7.6
-2 1 5 78.99 4.5
-2 1 5 61.59 6.6
-2 1 5 66.99 6.6
-2 1 5 70.19 4.1
1 -1 -5 9.3 1.6
1 -1 -5 15.8 2.3
1 -1 -5 17.5 4.9
1 -1 -5 12 2.7
1 -1 -5 19.9 4.2
-1 1 5 14.8 2.2
-1 1 5 20.4 4
-1 1 5 11.6 4.1
-1 1 5 15.1 2.2
-1 1 5 13.7 3
0 -1 -5 26.3 3.5
0 -1 -5 28.8 3.6
0 -1 -5 25.1 4.8
0 -1 -5 27 2.5
0 -1 -5 38.6 6.3
0 1 5 26.4 2.3
0 1 5 29.3 4.9
0 1 5 24.2 4.8
0 1 5 29.4 3.4
0 1 5 27.2 4.1
-1 -1 -5 4.3 3.3
-1 -1 -5 4.1 3.4
-1 -1 -5 6.7 2.2
-1 -1 -5 5.8 2.7
1 1 5 1.4 2.7
1 1 5 2.7 4.1
1 1 5 6.7 4
1 1 5 -0.2 3.1
1 1 5 1.6 2
-2 -1 -5 31.1 5
-2 -1 -5 34.2 4.6
-2 -1 -5 32 5.1
-2 -1 -5 39.2 6.3
2 1 5 47.9 5.1
2 1 5 36.2 5.9
2 1 5 35.6 4.6
2 1 5 48.2 6.9
-3 -1 -5 23.4 4.6
-3 -1 -5 22.9 4.9
-3 -1 -5 26.9 3.7
3 1 5 27.3 7.4
3 1 5 25.5 4
-4 -1 -5 54.19 7.4
-4 -1 -5 63.39 6.9
-4 -1 -5 55.99 6.6
4 1 5 42 9.2
4 1 5 57.59 6.5
-5 -1 -5 52.29 8.3
-5 -1 -5 33.9 5.8
-5 -1 -5 40.9 7.2
5 1 5 48.4 12.2
5 1 5 44.1 5.8
-6 -1 -5 73.69 10.7
-6 -1 -5 71.49 12.2
6 1 5 89.99 17.1
6 1 5 96.79 15.1
-7 -1 -5 -2.3 9.2
-7 -1 -5 -3.7 7.8
7 1 5 21.4 19.8
7 1 5 10.5 17.2
-8 -1 -5 12.4 10.2
-8 -1 -5 22.3 11.3
8 1 5 2.7 22.6
8 1 5 0.4 19.5
10 -2 -5 31.5 23.4
10 -2 -5 -18.6 23
10 -2 -5 21.1 18.8
-10 2 5 12.7 10.7
-10 2 5 -7.1 8.5
9 -2 -5 -5.3 14.4
9 -2 -5 22.4 18.5
9 -2 -5 -3.7 19.2
-9 2 5 4.9 8.1
-9 2 5 7.7 6.7
8 -2 -5 31.6 16
8 -2 -5 13.8 16.1
8 -2 -5 18.4 11.3
-8 2 5 23.7 6.5
-8 2 5 22.3 5.5
7 -2 -5 62.79 13.8
7 -2 -5 49.8 12.8
-7 2 5 41.1 6.1
-7 2 5 41.8 5.4
6 -2 -5 16.8 9.5
6 -2 -5 24.1 9
6 -2 -5 17.3 7.3
-6 2 5 13.8 3.8
-6 2 5 14 3.9
5 -2 -5 49.6 9.4
5 -2 -5 47.7 5.2
5 -2 -5 67.49 11.1
5 -2 -5 59.49 9
-5 2 5 47 4.8
-5 2 5 51.09 5.1
-5 2 5 47.9 5.3
4 -2 -5 79.99 11.4
4 -2 -5 103.29 8.9
4 -2 -5 96.39 5.7
4 -2 -5 98.49 10.8
4 -2 -5 103.39 5.5
-4 2 5 95.29 5.8
-4 2 5 101.79 5.9
3 -2 -5 24.4 5.1
3 -2 -5 24.4 3.6
3 -2 -5 22 5.8
3 -2 -5 20.6 4.5
3 -2 -5 23.6 3.1
-3 2 5 24.7 3.3
-3 2 5 27.4 7.4
-3 2 5 26.2 3.7
-3 2 5 16.1 5.2
-3 2 5 32.2 5.3
2 -2 -5 5.1 2.2
2 -2 -5 13.1 3.4
2 -2 -5 13.4 5
2 -2 -5 5.2 1.8
2 -2 -5 11.3 3.6
-2 2 5 8.2 3.7
-2 2 5 10.3 2.4
-2 2 5 0.3 4.7
-2 2 5 7.1 1.8
-2 2 5 9.5 3.9
1 -2 -5 121.79 5.1
1 -2 -5 129.69 9.9
1 -2 -5 131.19 7.6
1 -2 -5 111.99 6.1
1 -2 -5 113.49 7.8
-1 2 5 112.89 7.8
-1 2 5 130.09 6.6
-1 2 5 106.59 9.1
-1 2 5 118.99 7.4
-1 2 5 124.79 5.2
0 -2 -5 -1.4 2.1
0 -2 -5 6.8 2.9
0 -2 -5 2.3 1.4
0 -2 -5 2.6 2.7
0 -2 -5 1.1 4
0 2 5 9.6 4.6
0 2 5 5.6 3.3
0 2 5 2.3 1.9
0 2 5 5 1.3
0 2 5 -1.7 4.2
-1 -2 -5 41.7 4.5
-1 -2 -5 44.3 5.7
-1 -2 -5 33.4 5.1
-1 -2 -5 43.5 6.1
1 2 5 41.6 6.9
1 2 5 35.7 4.4
1 2 5 45.5 6.5
1 2 5 39.9 7
1 2 5 43.5 5.9
-2 -2 -5 136.59 8.1
-2 -2 -5 133.69 8.6
-2 -2 -5 140.49 7.6
2 2 5 144.39 11.5
2 2 5 125.79 7.5
-3 -2 -5 12.1 3.8
-3 -2 -5 10.4 4.7
-3 -2 -5 12.5 4.6
3 2 5 8.5 7
3 2 5 12.5 3.9
-4 -2 -5 -6.1 4.9
-4 -2 -5 -0.8 5.1
-4 -2 -5 -1.3 4.6
4 2 5 -5.4 7.8
4 2 5 -4.2 4.2
-5 -2 -5 8.8 6.1
-5 -2 -5 1.3 6
5 2 5 11.1 10.9
-6 -2 -5 78.59 13
-6 -2 -5 91.69 11.5
6 2 5 80.49 19.1
6 2 5 72.49 16.1
-7 -2 -5 -0.9 10.5
-7 -2 -5 10.1 9.1
7 2 5 27.5 19.3
7 2 5 24.7 21
-8 -2 -5 75.99 14
-8 -2 -5 65.79 13.4
8 2 5 85.29 23.8
8 2 5 14.1 25.4
10 -3 -5 6.9 22
10 -3 -5 26.1 23.6
10 -3 -5 51.39 18.8
-10 3 5 8.2 9.2
-10 3 5 26.6 8.3
9 -3 -5 48 18.8
9 -3 -5 31.7 18.1
9 -3 -5 46.7 14.9
-9 3 5 56.69 8.4
-9 3 5 34.7 7.5
8 -3 -5 21.4 14.2
8 -3 -5 27.3 15.9
8 -3 -5 27.5 11.4
-8 3 5 34.6 6.4
-8 3 5 20 6.4
7 -3 -5 76.69 13.9
7 -3 -5 63.89 14
7 -3 -5 69.09 13.7
-7 3 5 81.49 8.4
-7 3 5 73.19 7.2
6 -3 -5 18.4 7.3
6 -3 -5 10.9 8.6
6 -3 -5 9 4.9
6 -3 -5 13 8.4
-6 3 5 9.4 3.7
-6 3 5 12.9 3.9
-6 3 5 0.7 4.4
-6 3 5 9.1 3.4
5 -3 -5 30.4 8
5 -3 -5 31.6 8.7
5 -3 -5 26.7 4.6
5 -3 -5 34.6 4
5 -3 -5 51.19 8.4
-5 3 5 30.1 3.8
-5 3 5 42.1 5.3
4 -3 -5 10.6 5.3
4 -3 -5 15.6 2.5
4 -3 -5 14.9 6.8
4 -3 -5 18 3.9
4 -3 -5 25.7 5.4
-4 3 5 9.8 2.6
-4 3 5 20.3 3.2
3 -3 -5 3.6 4.1
3 -3 -5 3 3.5
3 -3 -5 8 1.9
3 -3 -5 8.1 5.6
3 -3 -5 4.8 3
-3 3 5 6.5 4
-3 3 5 8.6 2.2
-3 3 5 4.9 2.4
2 -3 -5 77.59 6.4
2 -3 -5 58.29 4.1
2 -3 -5 75.99 9.5
2 -3 -5 60.39 5.6
2 -3 -5 76.19 7.6
-2 3 5 52.69 8.5
-2 3 5 71.59 5.2
-2 3 5 74.49 6.5
-2 3 5 57.29 10.2
-2 3 5 69.49 4.4
1 -3 -5 105.69 9.9
1 -3 -5 106.69 4.7
1 -3 -5 78.69 6.3
1 -3 -5 102.99 7.8
-1 3 5 97.89 8.6
-1 3 5 106.39 6.3
-1 3 5 115.19 5.2
-1 3 5 81.09 11
-1 3 5 101.39 7.7
0 -3 -5 2 4.1
0 -3 -5 -1.5 3.2
0 -3 -5 -2.6 3.1
0 -3 -5 0.2 1.5
0 -3 -5 0.2 3.7
0 3 5 -1 4.3
0 3 5 -2.2 4.4
0 3 5 1.9 2.4
0 3 5 1.3 1.5
-1 -3 -5 173.38 8.9
-1 -3 -5 173.98 10.1
-1 -3 -5 161.48 10.5
1 3 5 188.98 12.5
1 3 5 181.48 8.9
-2 -3 -5 -1.8 3.8
-2 -3 -5 -1.5 3.7
-2 -3 -5 -3.4 4.7
2 3 5 1.6 3.3
2 3 5 4.6 5.9
-3 -3 -5 34.6 6.3
-3 -3 -5 38.5 6.7
3 3 5 34.5 5.6
3 3 5 39.5 9.6
-4 -3 -5 23.6 6.6
-4 -3 -5 19.9 5.8
4 3 5 21.4 5.7
4 3 5 18.5 10.3
-5 -3 -5 39 8.9
-5 -3 -5 47.7 8.6
5 3 5 37 6.7
5 3 5 47.8 15.2
-6 -3 -5 17.8 8.9
-6 -3 -5 10.1 8
6 3 5 13.9 21
6 3 5 2.9 14.6
-7 -3 -5 5.9 9.3
-7 -3 -5 10.1 11.4
7 3 5 0.7 22.5
7 3 5 21.8 19.2
10 -4 -5 -6.6 22.6
10 -4 -5 18.5 21.7
-10 4 5 16.9 8.7
9 -4 -5 -4.1 14
9 -4 -5 -15.3 17.1
9 -4 -5 6.9 17.7
-9 4 5 1.2 6
-9 4 5 -4.4 6.4
8 -4 -5 -3.4 13.8
8 -4 -5 17.4 11.8
8 -4 -5 0 13.2
-8 4 5 -0.3 5.6
-8 4 5 3.5 5.2
7 -4 -5 90.29 12.6
7 -4 -5 65.49 14.1
7 -4 -5 65.89 13.4
-7 4 5 55.39 8.4
-7 4 5 59.19 7
6 -4 -5 35.3 10
6 -4 -5 32 4.9
6 -4 -5 41.5 10.2
-6 4 5 28.8 4.6
-6 4 5 31.1 4.4
5 -4 -5 6.7 7.6
5 -4 -5 9.3 7.3
-5 4 5 3 3.1
-5 4 5 2.5 3
4 -4 -5 162.38 13.1
4 -4 -5 165.28 13
-4 4 5 159.08 8.7
-4 4 5 162.28 8.2
3 -4 -5 19.3 5.5
3 -4 -5 24.6 7.4
-3 4 5 14.5 3.4
-3 4 5 15.2 2.8
2 -4 -5 75.69 8.9
2 -4 -5 99.39 11
-2 4 5 88.79 6.2
-2 4 5 80.99 5.2
1 -4 -5 -1.9 2.8
1 -4 -5 3.2 5.2
1 -4 -5 -1 2.1
1 -4 -5 2.7 4.1
-1 4 5 1.8 2.5
-1 4 5 0 1.9
0 -4 -5 -3.2 4.3
0 -4 -5 -0.6 2
0 -4 -5 -2.6 2.9
0 -4 -5 1.2 4.2
0 4 5 5.7 5.1
0 4 5 1 1.8
0 4 5 4.4 3.2
-1 -4 -5 158.68 10.6
-1 -4 -5 152.48 10.8
-1 -4 -5 157.78 8.9
1 4 5 171.88 9.5
1 4 5 165.88 13.3
-2 -4 -5 43.7 7.9
-2 -4 -5 53.09 7.9
-2 -4 -5 44.3 6.9
2 4 5 58.79 9.9
2 4 5 60.59 7
-3 -4 -5 4.8 5.2
-3 -4 -5 4.9 5.7
3 4 5 -5.6 8.8
3 4 5 2.9 4.7
-4 -4 -5 241.28 14.5
-4 -4 -5 225.58 14.5
4 4 5 220.18 13
4 4 5 203.48 24
-5 -4 -5 14.3 7.9
-5 -4 -5 13.1 8.5
5 4 5 12.2 16.3
-6 -4 -5 34.7 11.2
-6 -4 -5 28.3 9.9
6 4 5 57.29 22.4
6 4 5 15.5 17.7
-7 -4 -5 12.4 11.5
-7 -4 -5 3.1 12.9
7 4 5 -9.1 21.3
7 4 5 -23.3 25.9
10 -5 -5 -12.7 20.2
10 -5 -5 0.4 21.6
-10 5 5 -13.5 8.8
9 -5 -5 16.8 18.2
9 -5 -5 3.2 16.4
-9 5 5 28.2 7.8
8 -5 -5 -8.5 13.3
8 -5 -5 -15.3 15.7
-8 5 5 19.5 6.1
-8 5 5 3.4 4.8
7 -5 -5 -2.6 10.7
7 -5 -5 23.6 14.1
-7 5 5 9.6 4.4
-7 5 5 12.5 5.5
6 -5 -5 -12.8 8.6
-6 5 5 6.3 4.3
-6 5 5 6 3.9
5 -5 -5 39.6 10.1
5 -5 -5 26.9 8.4
-5 5 5 25.3 4
4 -5 -5 33.3 8.8
4 -5 -5 28.1 8
-4 5 5 25.6 3.7
-4 5 5 25.9 4.8
3 -5 -5 193.58 14.3
3 -5 -5 180.88 13.6
-3 5 5 178.38 10
-3 5 5 183.58 8.7
2 -5 -5 20.3 6.1
2 -5 -5 8.8 6.8
-2 5 5 15.2 4
-2 5 5 13.3 2.9
1 -5 -5 -0.1 5.4
1 -5 -5 1.8 3.2
1 -5 -5 -4.8 4.9
1 -5 -5 3.6 3.2
-1 5 5 3.5 2.4
-1 5 5 -8 5.7
-1 5 5 0.2 3.4
0 -5 -5 15.5 4.5
0 -5 -5 14 5.9
0 -5 -5 11.7 6.2
0 -5 -5 13.6 2.7
0 5 5 15.7 4.1
0 5 5 18.6 2.7
0 5 5 -1.6 6.3
-1 -5 -5 28.1 7.2
-1 -5 -5 43.2 6.1
-1 -5 -5 27.9 6.5
1 5 5 31.1 5.2
1 5 5 21.1 8
-2 -5 -5 42.2 7.8
-2 -5 -5 40 7.5
-2 -5 -5 32.6 8.1
2 5 5 34.4 10
2 5 5 45.2 6.5
-3 -5 -5 8.3 5.9
-3 -5 -5 5.6 6.9
3 5 5 -3.8 5.7
3 5 5 2.3 11.5
-4 -5 -5 198.38 15.1
-4 -5 -5 193.38 16.1
4 5 5 202.88 14
4 5 5 211.68 31.8
-5 -5 -5 6.5 10
-5 -5 -5 7.2 8.7
5 5 5 18.3 20.9
-6 -5 -5 -0.8 10.3
-6 -5 -5 7.1 11.6
6 5 5 4 19.8
6 5 5 22 24.4
9 -6 -5 -12.8 16.7
9 -6 -5 -11.8 18.5
-9 6 5 -6.1 7
8 -6 -5 11.4 15.9
8 -6 -5 -7.4 12.9
-8 6 5 0.6 6.1
-8 6 5 5.7 5.9
7 -6 -5 39.5 13.1
7 -6 -5 10.6 10.9
-7 6 5 27.6 5.9
-7 6 5 27.3 6.3
6 -6 -5 56.89 11.7
6 -6 -5 67.39 13.2
-6 6 5 45.7 6.5
-6 6 5 41.5 5.6
5 -6 -5 60.59 11.6
5 -6 -5 56.29 11.1
-5 6 5 75.59 7.4
-5 6 5 86.39 8.5
4 -6 -5 44.2 9.5
4 -6 -5 44.9 9.9
-4 6 5 48.5 6.2
-4 6 5 60.79 7.5
3 -6 -5 15.2 8.4
3 -6 -5 14.9 7
-3 6 5 17.9 4.6
-3 6 5 15.8 3.5
2 -6 -5 46.1 9.1
2 -6 -5 28.2 7
-2 6 5 34.7 5.3
1 -6 -5 5.3 5.8
1 -6 -5 9.2 6.5
1 -6 -5 7.9 3.8
-1 6 5 13.2 4.3
-1 6 5 9.3 2.9
0 -6 -5 -3.2 4.1
0 -6 -5 -6.2 6
0 -6 -5 -6.4 4.1
0 -6 -5 -6.6 5.8
0 6 5 1.6 4.4
0 6 5 0.5 2.8
-1 -6 -5 14 6.7
-1 -6 -5 11.9 5.7
-1 -6 -5 -0.4 6.9
1 6 5 11.6 5.6
1 6 5 6.9 8.9
-2 -6 -5 13.6 6
-2 -6 -5 10.9 8.4
-2 -6 -5 13.9 7.6
2 6 5 9.7 6
2 6 5 22.2 12.3
-3 -6 -5 20.3 7.6
-3 -6 -5 42.8 10.5
3 6 5 25.3 17
3 6 5 19.1 7.2
-4 -6 -5 2.3 9.6
-4 -6 -5 10.6 8.5
4 6 5 -14.1 18.5
4 6 5 3.6 8
-5 -6 -5 8.2 11.4
-5 -6 -5 -6.2 10.3
5 6 5 8.9 22.6
6 6 5 13.6 30.4
9 -7 -5 -24.5 18.9
-9 7 5 -1.9 8
8 -7 -5 -15.6 15.6
-8 7 5 12.9 7.1
-8 7 5 10 7.5
7 -7 -5 20.6 14.5
-7 7 5 3 6.2
-7 7 5 2.2 6.2
6 -7 -5 42.3 11.5
6 -7 -5 41.8 13.3
-6 7 5 53.19 7.6
-6 7 5 55.39 7.2
5 -7 -5 22.7 10.9
5 -7 -5 21.3 9.9
-5 7 5 33.1 6.1
-5 7 5 23.9 5
4 -7 -5 122.59 14.6
4 -7 -5 96.49 15.8
-4 7 5 125.29 10.2
-4 7 5 105.09 8.5
3 -7 -5 51.49 9.8
3 -7 -5 50.09 9.8
-3 7 5 59.89 6.6
-3 7 5 40.6 6.3
2 -7 -5 131.69 14.7
2 -7 -5 146.09 14.1
-2 7 5 127.49 10.5
-2 7 5 135.09 8.3
1 -7 -5 35.1 8.2
1 -7 -5 21.9 7.5
1 -7 -5 29.1 4.8
-1 7 5 27 5.9
-1 7 5 26.6 4.3
0 -7 -5 99.69 12.2
0 -7 -5 113.09 8.7
0 7 5 94.79 7.3
0 7 5 75.99 10
-1 -7 -5 45.4 7.2
-1 -7 -5 48.3 9.7
-1 -7 -5 34.2 10.6
1 7 5 36.8 7.1
1 7 5 28.1 13.8
-2 -7 -5 -0.2 6.6
-2 -7 -5 15.1 10.1
-2 -7 -5 9 9.1
2 7 5 -9.8 14.6
2 7 5 10.6 7.3
-3 -7 -5 15.9 10.4
-3 -7 -5 13.1 8.8
3 7 5 23 19.7
-4 -7 -5 6.6 11
-4 -7 -5 11.3 11.1
4 7 5 13.6 8.8
4 7 5 -8 22.6
-5 -7 -5 24.6 13.9
-5 -7 -5 7 11.7
5 7 5 56.19 29.4
9 -8 -5 -35.2 19.7
-9 8 5 29.2 9.9
-9 8 5 -1.7 8.8
8 -8 -5 8.7 16.9
-8 8 5 -7.1 7.6
-8 8 5 14.1 8.5
7 -8 -5 0.6 11.7
7 -8 -5 10.3 15.4
-7 8 5 12.9 6.6
-7 8 5 16.5 7.9
6 -8 -5 -14.9 13.4
-6 8 5 17.7 5.9
-6 8 5 -2.5 7.1
5 -8 -5 -2.4 9.4
5 -8 -5 -22.9 10.8
-5 8 5 3.6 6.8
-5 8 5 -0.7 5.2
4 -8 -5 -2.5 11.1
4 -8 -5 13.9 9.3
-4 8 5 6.5 6.8
-4 8 5 4.5 4.9
3 -8 -5 33.8 10.2
3 -8 -5 32.7 9.4
-3 8 5 36.5 5.6
-3 8 5 37.8 8.1
2 -8 -5 33.2 9.9
2 -8 -5 52.69 9.2
-2 8 5 27.2 7.5
-2 8 5 39.7 5.4
1 -8 -5 13.1 9.5
1 -8 -5 8.7 8.3
-1 8 5 3.7 4.2
-1 8 5 1.9 6.8
0 -8 -5 10.6 10.4
0 -8 -5 23.4 6.8
0 -8 -5 23.5 9.3
0 8 5 9.7 4.2
0 8 5 14 7.7
-1 -8 -5 9.8 12.4
-1 -8 -5 21.2 7.2
1 8 5 -7.7 8.7
1 8 5 -0.8 17.3
-2 -8 -5 5 8.3
-2 -8 -5 -2.6 11.6
-2 -8 -5 21.9 13.2
2 8 5 7.6 9.8
2 8 5 31.8 21.1
-3 -8 -5 37.1 10.5
-3 -8 -5 43.3 12.4
3 8 5 57.79 24.9
-4 -8 -5 6.7 11.5
-4 -8 -5 17 13.5
4 8 5 16.3 29.3
8 -9 -5 24.1 19.7
-8 9 5 27.4 9.1
-8 9 5 37.5 10.7
7 -9 -5 6.8 12.9
7 -9 -5 -11.3 15.5
-7 9 5 -11.6 8.8
-7 9 5 9.5 7.3
6 -9 -5 60.89 16.7
6 -9 -5 92.49 14
-6 9 5 102.39 12.8
-6 9 5 124.59 14.5
5 -9 -5 4.9 11.7
5 -9 -5 18.4 10.8
-5 9 5 1.9 7.5
-5 9 5 18.3 6.5
4 -9 -5 2.1 10.1
4 -9 -5 5.1 11.8
-4 9 5 2.2 8.2
-4 9 5 6.7 5.8
3 -9 -5 13.8 10.5
3 -9 -5 15.3 9.6
-3 9 5 7.8 7.6
-3 9 5 12.6 5.7
2 -9 -5 4.3 11.1
2 -9 -5 42.9 11.5
-2 9 5 32.6 8.5
-2 9 5 19.6 5.6
1 -9 -5 78.69 12.9
-1 9 5 70.39 10
0 -9 -5 31.6 7.6
0 -9 -5 25.6 11.9
0 -9 -5 34 12.7
0 9 5 12.4 8.7
0 9 5 25.8 19.5
-1 -9 -5 16.2 8.6
-1 -9 -5 14.8 12.2
-1 -9 -5 -3.5 13.4
1 9 5 16.1 10.5
1 9 5 -14.3 20.9
-2 -9 -5 24.8 10.1
-2 -9 -5 -0.2 15.9
-2 -9 -5 30.5 13.2
2 9 5 -1.2 23.8
2 9 5 14.2 11.6
-3 -9 -5 13.6 13.9
-3 -9 -5 4.8 11.7
3 9 5 20.3 31.1
3 9 5 -2 11.6
7 -10 -5 32.9 18.7
-7 10 5 61.39 9.8
-7 10 5 50.39 12.4
6 -10 -5 -3.2 13.7
6 -10 -5 8.8 15.9
-6 10 5 -3.3 7.8
-6 10 5 2.3 9.4
5 -10 -5 -3.2 14.7
5 -10 -5 0.2 12.8
-5 10 5 -4.1 8.9
-5 10 5 2.8 7.1
4 -10 -5 -7.6 13.1
-4 10 5 -4.7 6.7
-4 10 5 0.5 8.9
3 -10 -5 49.3 12.4
3 -10 -5 -1.2 12.6
-3 10 5 24.9 7.2
-3 10 5 20.3 9.9
2 -10 -5 -9.4 12.5
2 -10 -5 -1.7 10.9
-2 10 5 7.5 6.6
-2 10 5 4.5 9
1 -10 -5 -11.5 13.2
1 -10 -5 35.1 12.3
-1 10 5 14.4 9.5
-1 10 5 3.3 5.7
0 -10 -5 0.4 13.5
0 -10 -5 28.7 13.2
0 10 5 5.8 21.7
0 10 5 5.7 9.8
-1 -10 -5 39.5 16.8
-1 -10 -5 49.7 15
1 10 5 26.6 28
1 10 5 16.8 11.9
5 -11 -5 8.4 15.7
-5 11 5 -6.3 8.6
-5 11 5 5.5 11.1
4 -11 -5 2.6 15.6
4 -11 -5 43.2 13.4
-4 11 5 5.9 11.6
-4 11 5 8.4 8.7
3 -11 -5 24.4 13.9
3 -11 -5 -25.4 14.5
-3 11 5 23.2 8.6
-3 11 5 8.6 11.6
2 -11 -5 19.6 16.4
2 -11 -5 12.4 13.1
-2 11 5 -6.9 11.4
1 -11 -5 7.4 16
1 -11 -5 26.4 14.7
-1 11 5 -7.2 11.2
-1 12 -6 10.1 10.5
-1 12 -6 -29.6 18.5
-1 12 -6 -10.4 14.3
1 -12 6 -6.5 16.9
-2 12 -6 16.5 10.6
-2 12 -6 5 15.1
2 -12 6 32.9 16.1
-3 12 -6 11.8 15.6
-3 12 -6 -7.4 9.5
3 -12 6 19.5 17.2
3 -12 6 21.4 15.5
1 11 -6 19.7 13
1 11 -6 -7.4 19.9
1 11 -6 -5.1 21.5
1 11 -6 27.6 33.8
1 11 -6 -7.3 10.4
-1 -11 6 17.4 15.4
0 11 -6 -12.4 9.1
0 11 -6 -0.9 17.3
0 11 -6 4.9 12
0 -11 6 10.6 14.2
-1 11 -6 20.1 13
-1 11 -6 21.5 17.9
-1 11 -6 8.3 8.7
1 -11 6 2 13.8
1 -11 6 6.3 13.2
-2 11 -6 9 13.1
-2 11 -6 9.9 8.2
2 -11 6 -1.1 13.9
2 -11 6 3 13.6
-3 11 -6 35.2 8.4
-3 11 -6 32.2 13.5
3 -11 6 28.7 13
3 -11 6 23.7 13.6
-4 11 -6 38.9 13.2
-4 11 -6 27.4 8.2
4 -11 6 28.6 13.4
4 -11 6 27.7 12.7
-5 11 -6 0.1 12.3
-5 11 -6 -3.9 8.2
5 -11 6 -4.5 13.7
5 -11 6 -27 14.5
-6 11 -6 1.8 9.8
-6 11 -6 0.2 11.3
6 -11 6 27 13.8
6 -11 6 5.5 17.6
3 10 -6 9.7 23.7
3 10 -6 12.9 41.5
3 10 -6 7.2 26
3 10 -6 -0.5 9.6
-3 -10 6 12.7 11.3
2 10 -6 30.9 36.6
2 10 -6 25.3 11.1
2 10 -6 28.3 10.1
2 10 -6 36.9 20.2
2 10 -6 48.7 24
1 10 -6 13.7 19.1
1 10 -6 40.8 29.2
1 10 -6 -4.7 10.5
1 10 -6 10.3 20.1
1 10 -6 -3.5 8.6
-1 -10 6 14.6 13.2
-1 -10 6 1.3 12.5
0 10 -6 23.3 10.3
0 10 -6 -19.7 15.3
0 10 -6 -1.5 7.9
0 10 -6 -7.6 13.9
0 10 -6 0.8 20.9
0 -10 6 19.3 11.5
0 -10 6 9.9 11.5
-1 10 -6 17 12.8
-1 10 -6 23.7 7.9
-1 10 -6 25.3 11.7
1 -10 6 37.2 10.7
1 -10 6 12.1 11.2
-2 10 -6 5.5 12.3
-2 10 -6 57.09 12.2
-2 10 -6 40.2 8.6
2 -10 6 24.1 10.4
2 -10 6 17.2 11.2
-3 10 -6 -14.2 6.2
-3 10 -6 4.6 10.3
3 -10 6 10.1 10.5
3 -10 6 3.7 9.9
-4 10 -6 6.6 7
-4 10 -6 -0.8 10.6
4 -10 6 7.9 10.4
4 -10 6 0.4 11.2
-5 10 -6 -10.5 10.3
-5 10 -6 2.3 7.1
5 -10 6 11.2 14.4
5 -10 6 -9.4 10.4
-6 10 -6 36.1 8.5
-6 10 -6 29.7 10.4
6 -10 6 20.3 15
6 -10 6 23.7 11.3
-7 10 -6 11.8 9.6
-7 10 -6 -6.2 7.7
7 -10 6 -4.4 16.9
7 -10 6 -5.2 11.6
4 9 -6 -9.9 15.4
4 9 -6 -21.5 36.6
4 9 -6 3.5 25.4
4 9 -6 9.7 23.8
-4 -9 6 -1.7 10.6
3 9 -6 100.89 12.4
3 9 -6 87.29 22
3 9 -6 105.49 25.1
3 9 -6 129.89 35.8
3 9 -6 58.59 10.9
-3 -9 6 79.99 12.3
-3 -9 6 79.19 8.8
2 9 -6 29 15.8
2 9 -6 16.4 20.1
2 9 -6 5.6 27.1
2 9 -6 8.3 8.7
2 9 -6 -6.4 8.8
-2 -9 6 8.5 10.6
-2 -9 6 6.1 5.8
1 9 -6 5.5 8.5
1 9 -6 25.6 13.1
1 9 -6 6.1 20.3
1 9 -6 0.4 14.8
1 9 -6 -9.8 7.7
-1 -9 6 8.2 9.4
-1 -9 6 13.8 10
0 9 -6 17 9.2
0 9 -6 -10.2 10.7
0 9 -6 -4 12.3
0 9 -6 -8 7.2
0 -9 6 7.9 8.3
0 -9 6 11.7 9.3
-1 9 -6 34.3 7.9
-1 9 -6 30.8 9.9
-1 9 -6 30.9 12.3
1 -9 6 22.2 10.3
1 -9 6 25.7 8.5
-2 9 -6 39.8 9.3
-2 9 -6 32.8 11
-2 9 -6 53.39 8.2
2 -9 6 30.5 8.8
2 -9 6 49 9.8
-3 9 -6 101.39 13.4
-3 9 -6 94.59 11.4
3 -9 6 102.89 13.7
3 -9 6 121.09 15.1
-4 9 -6 17.3 6.1
-4 9 -6 16.7 8.2
4 -9 6 6.2 8.3
4 -9 6 8.7 9.9
-5 9 -6 -5.3 5.6
5 -9 6 18.1 11.1
5 -9 6 2.6 8.9
-6 9 -6 16.5 7.4
-6 9 -6 23.1 8.5
6 -9 6 12.8 14.2
6 -9 6 32.2 10
-7 9 -6 8.8 8.7
-7 9 -6 -4.9 6.7
7 -9 6 5.6 9.8
7 -9 6 -22.4 15.6
5 8 -6 13.7 22.8
5 8 -6 -10.8 24.9
5 8 -6 11.8 32.3
-5 -8 6 -12.2 10.4
4 8 -6 18.9 19.5
4 8 -6 89.59 30
4 8 -6 19.8 9.7
4 8 -6 36.1 20.8
-4 -8 6 2.7 5.9
3 8 -6 20.8 7.9
3 8 -6 8 7.5
3 8 -6 -7 14.9
3 8 -6 39.2 26.4
3 8 -6 -7.7 17.3
-3 -8 6 5.3 7.7
-3 -8 6 7.7 5
2 8 -6 1.3 7.1
2 8 -6 11.1 6.9
2 8 -6 2.5 14.5
2 8 -6 1.7 12
2 8 -6 10.7 18.8
-2 -8 6 9.2 8.1
-2 -8 6 -1.6 6.6
-2 -8 6 7.2 4.9
1 8 -6 -3 6.7
1 8 -6 -6.6 6
1 8 -6 -0.4 10.2
1 8 -6 -0.3 12
1 8 -6 4.7 15.7
-1 -8 6 -0.5 7.6
-1 -8 6 3.3 7.4
-1 -8 6 -4.6 4.4
0 8 -6 12.1 10.9
0 8 -6 1.2 9
0 8 -6 11.3 5.9
0 8 -6 10.1 7.1
0 -8 6 10.3 4.5
0 -8 6 14.5 6.8
0 -8 6 20.2 7.4
-1 8 -6 7.2 5.3
-1 8 -6 5.9 8.9
-1 8 -6 -7.9 6.6
1 -8 6 -0.7 6.4
1 -8 6 12.4 6.9
-2 8 -6 138.59 10.7
-2 8 -6 111.59 14.8
2 -8 6 132.19 12.5
2 -8 6 121.79 13
-3 8 -6 5.5 8.8
-3 8 -6 20.3 5.2
3 -8 6 16.9 8.2
3 -8 6 24.6 7.6
-4 8 -6 11.5 5.5
4 -8 6 8.3 8.4
4 -8 6 9.2 7.3
-5 8 -6 5.1 5.7
-5 8 -6 -0.7 7.2
5 -8 6 11.9 7.5
5 -8 6 -15.8 9.6
-6 8 -6 -6.5 7.3
-6 8 -6 6.4 6.1
6 -8 6 1.9 8.1
6 -8 6 6.8 11.7
-7 8 -6 8.8 6.5
-7 8 -6 -0.6 8.6
7 -8 6 -9.2 14.4
7 -8 6 -4.6 8.9
-8 8 -6 8.9 9.1
-8 8 -6 2.2 6.7
8 -8 6 5.8 11
8 -8 6 -16 17.4
6 7 -6 53.89 27.8
6 7 -6 37.8 30.8
6 7 -6 43.3 23.8
-6 -7 6 32.6 11.8
5 7 -6 30.7 21.4
5 7 -6 27.8 19.7
5 7 -6 47.4 28.6
-5 -7 6 7.1 9.3
4 7 -6 15.8 18
4 7 -6 -11.5 24.9
4 7 -6 15.9 15.4
4 7 -6 10 6.2
-4 -7 6 9.5 8.2
-4 -7 6 16.8 5.5
3 7 -6 19.4 18.5
3 7 -6 14.9 6.7
3 7 -6 12.1 12.9
3 7 -6 7.6 7.5
3 7 -6 4.6 13.9
-3 -7 6 18.6 4.9
-3 -7 6 0.9 7.1
-3 -7 6 4.5 6.4
2 7 -6 53.39 17.7
2 7 -6 49.9 11.8
2 7 -6 39 13.5
2 7 -6 54.99 8
2 7 -6 51.99 7.6
-2 -7 6 46.5 6.9
-2 -7 6 40 7.7
-2 -7 6 49.8 8.3
1 7 -6 282.07 23.6
1 7 -6 261.67 15.7
1 7 -6 257.57 14.4
1 7 -6 250.97 20.5
1 7 -6 271.97 18.8
-1 -7 6 234.38 14.1
-1 -7 6 264.47 15.2
-1 -7 6 254.87 11.8
0 7 -6 39.6 10.5
0 7 -6 33.4 7.9
0 7 -6 26.7 5.7
0 -7 6 19.4 5.7
0 -7 6 29.5 4.5
0 -7 6 25.2 6.2
-1 7 -6 22.3 4.7
-1 7 -6 14.9 8.3
1 -7 6 10.8 3.9
1 -7 6 6.2 5.6
1 -7 6 9.5 5.4
-2 7 -6 94.39 13.4
-2 7 -6 91.69 8.2
2 -7 6 67.29 10.2
2 -7 6 78.29 9.3
-3 7 -6 151.58 13.9
-3 7 -6 167.28 10
3 -7 6 174.68 13.4
3 -7 6 136.39 11.5
-4 7 -6 30.7 7.9
-4 7 -6 26.6 4.9
4 -7 6 25.7 6.4
4 -7 6 19.3 8
-5 7 -6 26.5 5.6
-5 7 -6 24.2 5.4
5 -7 6 8.2 6.5
5 -7 6 13.8 8.9
-6 7 -6 15.1 5.2
-6 7 -6 2.6 5.6
6 -7 6 6.8 10.7
6 -7 6 12 7.4
-7 7 -6 3.8 5.3
-7 7 -6 1.8 5.1
-7 7 -6 -0.3 7.7
7 -7 6 -8.7 14.1
7 -7 6 7.2 8.2
-8 7 -6 -4.6 7.8
-8 7 -6 1.3 6.6
8 -7 6 5.7 16.2
8 -7 6 1.9 9.2
7 6 -6 1.9 24.3
7 6 -6 49.3 27.9
7 6 -6 -1.5 29.2
-7 -6 6 10.4 11.5
6 6 -6 11.3 24.5
6 6 -6 7 21.5
6 6 -6 -26.3 20.6
-6 -6 6 10.9 9.3
-6 -6 6 3 5.9
5 6 -6 34.5 22.1
5 6 -6 36.3 17.8
5 6 -6 -2.7 16.5
-5 -6 6 3.1 8.1
-5 -6 6 3.4 5.1
4 6 -6 20.9 5.9
4 6 -6 37.5 13.1
4 6 -6 34.1 19.2
4 6 -6 43.5 15.1
-4 -6 6 20.6 7.4
-4 -6 6 24.7 4.9
-4 -6 6 20.5 7.3
3 6 -6 24.9 10.8
3 6 -6 22.3 15
3 6 -6 22.2 6
3 6 -6 17.6 10.8
-3 -6 6 17.5 4.3
-3 -6 6 29.8 6.3
-3 -6 6 20.4 6.3
2 6 -6 12.9 9.4
2 6 -6 23.8 12
2 6 -6 20.6 8.6
-2 -6 6 27 5.3
-2 -6 6 20.2 4.1
-2 -6 6 19.1 5.7
1 6 -6 35.7 10.4
1 6 -6 28.1 5.8
1 6 -6 29.7 9.1
1 6 -6 38.4 7.7
-1 -6 6 31.8 5.5
-1 -6 6 35.6 5.7
-1 -6 6 39.9 5.9
0 6 -6 13.9 5.7
0 6 -6 24.4 8.2
0 6 -6 24.2 4.9
0 -6 6 23.8 3.9
0 -6 6 17.7 4.9
0 -6 6 8.7 4.5
-1 6 -6 17.9 4.3
-1 6 -6 25.8 7.5
1 -6 6 21.5 5.4
1 -6 6 22.3 4
1 -6 6 24.3 5.1
-2 6 -6 11.9 3.8
-2 6 -6 10.7 6.5
-2 6 -6 12.3 7.4
2 -6 6 12.9 5.4
2 -6 6 9.1 4.5
-3 6 -6 94.79 7.9
-3 6 -6 92.39 11.7
3 -6 6 101.39 9
3 -6 6 93.79 10.4
-4 6 -6 0.2 6.5
-4 6 -6 4.7 3.7
4 -6 6 -2.5 4.8
4 -6 6 0.8 6.5
-5 6 -6 42.2 6.4
-5 6 -6 43.5 5.6
5 -6 6 30 9.1
5 -6 6 41.1 7.5
-6 6 -6 37.8 6.1
-6 6 -6 38.7 7.3
6 -6 6 43 7.5
6 -6 6 21.6 11.2
-7 6 -6 161.58 11.9
-7 6 -6 198.98 12.2
7 -6 6 188.48 15.2
7 -6 6 157.88 23.8
-8 6 -6 -5.2 7.8
-8 6 -6 11.6 6.5
-8 6 -6 -0.8 5.8
8 -6 6 1.7 18.1
8 -6 6 6.2 9.3
-9 6 -6 27.1 7.3
9 -6 6 12.9 20.4
7 5 -6 17.5 21.5
7 5 -6 -15.2 23
7 5 -6 37.6 25.3
-7 -5 6 7.2 9.6
6 5 -6 26.6 20.8
6 5 -6 0.6 16.9
6 5 -6 34.2 18.3
-6 -5 6 16.7 5.7
-6 -5 6 15.9 8.5
5 5 -6 42.7 13.9
5 5 -6 56.99 17.8
5 5 -6 49.9 18.1
-5 -5 6 45.7 9.4
-5 -5 6 40 5.5
4 5 -6 -7.4 9.9
4 5 -6 3.6 10.2
4 5 -6 8.7 14
-4 -5 6 -0.7 5.2
-4 -5 6 -6.2 3.8
3 5 -6 17.2 12.1
3 5 -6 3.7 8.3
3 5 -6 11.5 8.7
-3 -5 6 4.2 3.4
-3 -5 6 -1.7 4.6
-3 -5 6 -3 4.3
2 5 -6 274.57 18.3
2 5 -6 271.77 20
2 5 -6 272.87 17.2
-2 -5 6 284.57 13
-2 -5 6 287.17 12.9
-2 -5 6 299.77 11.5
1 5 -6 6.8 4.5
1 5 -6 9.3 5.6
1 5 -6 12.1 6.7
1 5 -6 4.2 5.2
1 5 -6 8.8 7.3
-1 -5 6 3.8 3.7
-1 -5 6 5.7 3.5
-1 -5 6 5.3 2.7
0 5 -6 13.6 6.7
0 5 -6 17.8 4.4
0 5 -6 10.9 3.8
0 5 -6 14.9 4.5
0 -5 6 12.5 3.7
0 -5 6 13.5 3.5
0 -5 6 7.2 2.6
-1 5 -6 12.2 3.5
-1 5 -6 10.6 4.3
-1 5 -6 1.4 5.6
-1 5 -6 8.2 3.9
1 -5 6 12.1 3.7
1 -5 6 8.7 3.4
1 -5 6 11.5 2.8
1 -5 6 -2.6 7.5
-2 5 -6 39.7 8.2
-2 5 -6 28.2 4.2
-2 5 -6 29.7 5.7
2 -5 6 28.9 3.7
2 -5 6 27.2 5.1
2 -5 6 27.2 4.7
2 -5 6 21.1 8
-3 5 -6 13.8 7.7
-3 5 -6 16.3 3.8
-3 5 -6 18.9 7.1
3 -5 6 14.3 4.5
3 -5 6 8.7 5.4
-4 5 -6 102.89 7.2
-4 5 -6 103.89 9.9
4 -5 6 107.39 12.7
4 -5 6 100.69 9.1
-5 5 -6 49.8 6.8
-5 5 -6 48.3 5.4
5 -5 6 38.7 9.3
5 -5 6 43.3 6.6
-6 5 -6 54.99 9.2
-6 5 -6 44.6 5.7
6 -5 6 47.4 11
6 -5 6 58.39 8
-7 5 -6 12.8 4.8
-7 5 -6 16.3 6.4
7 -5 6 15.2 12.7
7 -5 6 18.4 7.2
-8 5 -6 84.29 13.4
-8 5 -6 73.69 10.8
8 -5 6 64.09 9.2
8 -5 6 76.59 19.2
-9 5 -6 16.2 8.3
9 -5 6 -14.8 19.9
8 4 -6 40.7 25.4
8 4 -6 -24.7 22.5
-8 -4 6 -7 10.8
7 4 -6 -11.3 19.3
7 4 -6 -9 18.8
7 4 -6 28.6 21.8
-7 -4 6 9.1 8.8
-7 -4 6 5.2 5.8
6 4 -6 20.8 17.6
6 4 -6 13.3 14.8
6 4 -6 0.5 14.9
-6 -4 6 11.5 4.9
-6 -4 6 6.9 7
5 4 -6 23.7 14.9
5 4 -6 24.8 12
5 4 -6 24.1 11.3
-5 -4 6 22.5 6.2
-5 -4 6 15.8 4.2
4 4 -6 11.3 8.9
4 4 -6 14.8 11.3
4 4 -6 24.9 8.8
-4 -4 6 7.7 4.7
-4 -4 6 7.4 3.4
3 4 -6 7.6 7
3 4 -6 15.6 9.7
3 4 -6 17.5 7.7
3 4 -6 19.8 4.1
-3 -4 6 15.3 4.9
-3 -4 6 7.5 3.6
-3 -4 6 18.2 3.2
2 4 -6 15.2 5.9
2 4 -6 22.2 4.5
2 4 -6 23.4 8.2
2 4 -6 25.8 7.2
2 4 -6 13.2 4.2
-2 -4 6 19 4
-2 -4 6 15.6 3.6
-2 -4 6 11.6 2.8
1 4 -6 84.49 10.4
1 4 -6 78.99 5.8
1 4 -6 82.49 10.6
1 4 -6 68.89 5.8
1 4 -6 72.09 7.4
-1 -4 6 85.89 6
-1 -4 6 112.59 12
-1 -4 6 82.09 5.1
0 4 -6 12.7 5.5
0 4 -6 6.5 3.4
0 -4 6 6 6.9
0 -4 6 6.7 2.2
0 -4 6 9.3 2.9
-1 4 -6 -1.2 4.9
-1 4 -6 -4.7 2.9
1 -4 6 0.8 2.6
1 -4 6 1.7 2
1 -4 6 5 6.3
-2 4 -6 3.5 4.3
-2 4 -6 -0.8 2.5
-2 4 -6 8.6 6.2
2 -4 6 3.3 6.4
2 -4 6 1.8 2.1
2 -4 6 1.3 3.4
2 -4 6 1.3 2.8
-3 4 -6 15.4 6.1
-3 4 -6 26.8 7.1
-3 4 -6 14.6 3.3
3 -4 6 15.9 3.6
3 -4 6 16 5.3
-4 4 -6 409.46 16.7
-4 4 -6 390.06 14
4 -4 6 379.56 15.9
4 -4 6 349.67 18.6
-5 4 -6 -6.1 3.2
-5 4 -6 1.2 4.5
5 -4 6 5.8 4.8
5 -4 6 7 7.7
-6 4 -6 16.6 6.2
-6 4 -6 4.5 3.8
6 -4 6 8.4 9.6
6 -4 6 -1.1 5.2
-7 4 -6 4.5 4.2
-7 4 -6 7.1 6.5
7 -4 6 7.1 12
7 -4 6 10.7 6.4
-8 4 -6 39.6 9.8
-8 4 -6 24.1 5.2
8 -4 6 18.8 13.1
8 -4 6 9.1 16.4
-9 4 -6 -1.3 9.2
9 -4 6 7.2 20.5
8 3 -6 26.5 20.8
8 3 -6 27.2 23.8
8 3 -6 11.5 20.2
-8 -3 6 23.1 10.1
-8 -3 6 13.4 6.8
7 3 -6 -13.5 17.3
7 3 -6 -9.5 19
7 3 -6 5.3 16.6
-7 -3 6 7.3 5.3
-7 -3 6 1.9 8.8
6 3 -6 87.59 17.3
6 3 -6 107.09 20.5
6 3 -6 109.39 18.1
-6 -3 6 84.99 11.1
-6 -3 6 98.99 8.7
5 3 -6 8.5 11.2
5 3 -6 15.8 8.7
5 3 -6 20.3 10.4
-5 -3 6 7 5
-5 -3 6 -2.6 3.6
4 3 -6 14.9 8.2
4 3 -6 18.6 9.8
4 3 -6 13 7.3
-4 -3 6 16.7 3.4
-4 -3 6 20.1 4.6
3 3 -6 96.49 10.6
3 3 -6 72.49 6.4
3 3 -6 82.59 12.2
3 3 -6 89.59 7.9
3 3 -6 64.49 9.9
-3 -3 6 89.89 6.9
-3 -3 6 94.89 6
-3 -3 6 94.09 5.7
-3 -3 6 73.09 10
2 3 -6 387.86 13.5
2 3 -6 346.17 18
2 3 -6 357.56 15.7
2 3 -6 377.26 13.4
2 3 -6 376.36 19.5
-2 -3 6 385.46 13
-2 -3 6 395.16 13.6
-2 -3 6 362.46 14.6
1 3 -6 1.2 3.1
1 3 -6 -0.7 2.8
1 3 -6 3 4.8
1 3 -6 -0.6 5
-1 -3 6 -1.7 6.3
-1 -3 6 0.7 2
-1 -3 6 1.7 6.8
-1 -3 6 0 2.4
0 3 -6 2 2.2
0 3 -6 -4.8 2.7
0 3 -6 -5.2 4
0 -3 6 2.4 5
0 -3 6 1.6 1.6
0 -3 6 3.7 2.5
-1 3 -6 4.5 2.1
-1 3 -6 3.4 5.1
-1 3 -6 2.1 3.2
1 -3 6 -1.2 1.7
1 -3 6 0.1 2.4
1 -3 6 -6.3 4.8
-2 3 -6 1380.46 40.5
-2 3 -6 1381.96 42.3
-2 3 -6 1320.27 39
2 -3 6 1370.76 38.2
2 -3 6 1368.66 39.9
2 -3 6 1394.66 40.3
2 -3 6 1297.77 42.9
-3 3 -6 10.1 5.3
-3 3 -6 14.2 3
-3 3 -6 12 5.8
3 -3 6 5.2 4.9
3 -3 6 13.1 3.5
-4 3 -6 288.47 11
-4 3 -6 261.87 13.5
4 -3 6 286.97 12.5
4 -3 6 273.17 16.5
-5 3 -6 -6.4 4.6
-5 3 -6 -0.6 2.8
5 -3 6 -4.4 8
5 -3 6 -1.3 4.1
-6 3 -6 9.9 3.4
-6 3 -6 6.9 6
6 -3 6 22.1 5.5
6 -3 6 8.5 10.4
-7 3 -6 49.5 7.3
-7 3 -6 67.19 10
7 -3 6 48.3 15.5
7 -3 6 62.89 8
-8 3 -6 21.5 8.9
8 -3 6 -16 17.5
-9 3 -6 5.6 9.7
9 -3 6 -23.9 20.3
9 2 -6 2.5 22.1
9 2 -6 41.8 21.2
9 2 -6 -9.1 25.6
-9 -2 6 -18.5 10.6
8 2 -6 -21.6 15.8
8 2 -6 -12 20.6
8 2 -6 -22.3 17.4
-8 -2 6 -4 9
-8 -2 6 -0.2 6.2
7 2 -6 28.1 17.3
7 2 -6 46.2 15.1
7 2 -6 27.2 17.6
-7 -2 6 62.39 11.4
-7 -2 6 35.6 5.5
6 2 -6 91.39 17.6
6 2 -6 112.09 17.5
6 2 -6 94.09 16.6
-6 -2 6 99.49 9.8
-6 -2 6 92.99 8
5 2 -6 -3.8 9.5
5 2 -6 -4.1 7.4
5 2 -6 -6.1 9
-5 -2 6 -1.3 4.2
-5 -2 6 2.4 3.2
4 2 -6 9.6 8.2
4 2 -6 2.1 6.1
4 2 -6 3.5 7.5
-4 -2 6 1.9 3.4
-4 -2 6 9.6 2.6
3 2 -6 118.59 11
3 2 -6 142.99 13.2
3 2 -6 129.19 11
3 2 -6 134.99 6.8
-3 -2 6 131.09 6.5
-3 -2 6 144.19 7.8
-3 -2 6 143.59 10.6
-3 -2 6 138.99 6.9
2 2 -6 58.49 8.9
2 2 -6 52.39 4.7
2 2 -6 44.7 7.1
2 2 -6 54.89 4.7
2 2 -6 47.6 6.4
-2 -2 6 49.8 4.1
-2 -2 6 52.49 4.3
-2 -2 6 49.4 8.4
-2 -2 6 50.69 6
1 2 -6 27.8 3.8
1 2 -6 34.9 6.2
1 2 -6 25.9 3.1
1 2 -6 26.7 4
1 2 -6 33 6.2
-1 -2 6 31.3 3.2
-1 -2 6 28.5 3.6
-1 -2 6 31 6.3
-1 -2 6 21.5 5.4
0 2 -6 71.89 4.2
0 2 -6 76.49 7.7
0 2 -6 75.29 6.7
0 2 -6 67.39 5.1
0 -2 6 88.29 4.6
0 -2 6 77.69 5.3
0 -2 6 81.29 7.9
0 -2 6 69.89 7.6
-1 2 -6 1.8 2.4
-1 2 -6 1.3 4.5
-1 2 -6 1.1 1.6
1 -2 6 2.1 2.2
1 -2 6 -2.4 1.6
1 -2 6 0.4 4.2
-2 2 -6 96.99 4.8
-2 2 -6 83.39 7
-2 2 -6 85.39 5.8
-2 2 -6 89.89 9.5
-2 2 -6 87.49 6.7
2 -2 6 84.99 7.2
2 -2 6 84.09 6.1
2 -2 6 79.99 10.3
2 -2 6 103.99 5.2
-3 2 -6 152.38 10.9
-3 2 -6 142.09 6.2
-3 2 -6 143.59 9.6
-3 2 -6 120.99 6.6
3 -2 6 138.29 11.1
3 -2 6 155.88 8.5
-4 2 -6 42.5 4.4
-4 2 -6 50.29 7.1
-4 2 -6 44.9 4.3
4 -2 6 44.7 6.4
4 -2 6 53.59 10.5
-5 2 -6 2.7 2.7
-5 2 -6 -7.7 4.8
5 -2 6 -2.6 8.7
5 -2 6 0.8 4.2
-6 2 -6 37.4 4.2
-6 2 -6 55.19 8.6
6 -2 6 55.89 13.1
6 -2 6 51.69 6.5
-7 2 -6 84.39 13.3
-7 2 -6 69.49 6.7
7 -2 6 63.59 9.9
7 -2 6 68.49 18.5
-8 2 -6 2.3 8.7
8 -2 6 2.1 19.3
8 -2 6 9.6 18.4
-9 2 -6 0.8 9.7
9 -2 6 -36.4 22.5
9 1 -6 -16.5 21.1
9 1 -6 14.2 22.9
9 1 -6 10.5 18.8
-9 -1 6 8.1 7.2
-9 -1 6 2.8 9.7
8 1 -6 -19.7 17.9
8 1 -6 23.6 18.2
8 1 -6 20.4 13.9
-8 -1 6 5.1 5.7
-8 -1 6 -4.4 7.9
7 1 -6 169.58 20.3
7 1 -6 229.68 26
7 1 -6 188.68 28.1
-7 -1 6 180.28 11.1
-7 -1 6 192.18 13.6
6 1 -6 8.4 10.2
6 1 -6 -9 11.3
6 1 -6 9.7 8.9
-6 -1 6 5.6 3.7
-6 -1 6 10.6 5.2
5 1 -6 10.4 7
5 1 -6 19.8 9.9
5 1 -6 22.1 8.3
-5 -1 6 22.7 4.8
-5 -1 6 19.6 3.5
4 1 -6 70.19 9.3
4 1 -6 79.29 12.4
4 1 -6 64.49 10.7
-4 -1 6 63.89 6
-4 -1 6 64.39 5.2
3 1 -6 167.58 7.1
3 1 -6 153.88 11.3
3 1 -6 150.98 13.1
3 1 -6 145.19 10.9
-3 -1 6 159.48 7
-3 -1 6 146.59 10.9
-3 -1 6 162.98 7.3
2 1 -6 232.38 13.4
2 1 -6 236.58 12.8
2 1 -6 218.08 9.3
2 1 -6 224.48 8.9
2 1 -6 222.18 9.9
2 1 -6 218.88 8.8
-2 -1 6 230.08 8.6
-2 -1 6 220.68 12
-2 -1 6 212.08 13.6
-2 -1 6 233.58 10.5
1 1 -6 169.98 7.6
1 1 -6 178.38 10.7
1 1 -6 178.78 10.6
1 1 -6 180.78 7
-1 -1 6 170.88 10.8
-1 -1 6 172.98 7
-1 -1 6 171.18 7.6
-1 -1 6 177.88 10.5
0 1 -6 628.74 19.8
0 1 -6 596.54 21.2
0 1 -6 606.64 18.3
0 1 -6 612.34 22.6
0 -1 6 653.13 20
0 -1 6 636.74 18.4
0 -1 6 637.14 22.7
0 -1 6 599.94 21.5
-1 1 -6 16.2 2.7
-1 1 -6 29 5.9
-1 1 -6 33.1 5.3
-1 1 -6 26.1 2.7
1 -1 6 12.1 4.7
1 -1 6 20.3 2.6
1 -1 6 18.8 4.6
1 -1 6 25.5 4
-2 1 -6 116.29 7.3
-2 1 -6 127.09 5.4
-2 1 -6 132.79 6.5
-2 1 -6 129.99 9.6
-2 1 -6 131.89 6.9
-2 1 -6 136.39 8.3
2 -1 6 136.89 7
2 -1 6 136.59 5.6
2 -1 6 135.29 9
2 -1 6 131.79 7.4
2 -1 6 124.29 8.7
-3 1 -6 3.1 2.2
-3 1 -6 1.1 4.1
-3 1 -6 1.4 3.8
-3 1 -6 8.7 1.8
-3 1 -6 12.4 3.3
-3 1 -6 6.4 5.2
3 -1 6 11.4 4.7
3 -1 6 10.2 3.4
3 -1 6 12 5.7
-4 1 -6 -1.3 1.9
-4 1 -6 -0.4 3.5
-4 1 -6 2.6 3.8
-4 1 -6 2.9 2.3
4 -1 6 2.2 3.6
4 -1 6 6.3 6.7
4 -1 6 -4.5 6.1
-5 1 -6 4.4 4.7
-5 1 -6 16.3 5.8
5 -1 6 8.9 9.4
5 -1 6 9.2 4.3
-6 1 -6 187.98 14
-6 1 -6 164.18 12
6 -1 6 167.78 22.8
6 -1 6 222.28 20.9
6 -1 6 180.28 11.2
-7 1 -6 8.2 7.8
-7 1 -6 18.2 8.6
7 -1 6 -22.1 15.6
7 -1 6 20 14.2
-8 1 -6 15.2 10.2
8 -1 6 6.8 19.7
8 -1 6 21.6 20.6
9 0 -6 -17.2 20.3
9 0 -6 6.8 16.7
9 0 -6 -15.8 20.3
-9 0 6 -6.1 9.5
-9 0 6 -15 7
8 0 -6 -2.7 15.2
8 0 -6 19.3 17.5
8 0 -6 -7.1 12.9
-8 0 6 1.8 7.3
-8 0 6 1.4 5.4
7 0 -6 10.6 14
7 0 -6 8.2 12.5
7 0 -6 16.2 10.1
-7 0 6 23.3 4.9
-7 0 6 18.3 6
6 0 -6 33.2 9.6
6 0 -6 32.7 12.2
6 0 -6 29.5 10.5
-6 0 6 39.5 6.1
-6 0 6 31.9 4.5
5 0 -6 48.8 8.9
5 0 -6 38.8 8.8
5 0 -6 47.4 11.4
-5 0 6 41 5.9
-5 0 6 43.3 5.4
4 0 -6 161.18 14.8
4 0 -6 161.28 6.9
4 0 -6 142.29 12.3
4 0 -6 159.88 12.2
-4 0 6 155.58 7.1
-4 0 6 153.68 8.2
-4 0 6 151.38 7.5
3 0 -6 13.5 4.5
3 0 -6 5.5 4.4
3 0 -6 9 3
3 0 -6 10.7 2.5
3 0 -6 12.7 6.1
-3 0 6 13.6 6.4
-3 0 6 5.2 5
-3 0 6 10.1 2.1
-3 0 6 10.1 2.5
2 0 -6 71.99 4.8
2 0 -6 76.59 8.4
2 0 -6 74.59 7.5
2 0 -6 66.89 4.4
2 0 -6 72.19 5.7
2 0 -6 59.09 4.7
-2 0 6 58.79 4.7
-2 0 6 69.69 7.6
-2 0 6 65.39 6.5
-2 0 6 68.29 4.3
-2 0 6 65.59 9.1
1 0 -6 487.55 19.1
1 0 -6 485.35 15.3
1 0 -6 487.05 16
1 0 -6 467.65 18.5
1 0 -6 496.75 15
-1 0 6 455.55 18.8
-1 0 6 468.15 18.7
-1 0 6 485.95 15
-1 0 6 501.75 16.2
-1 0 6 497.45 15.8
0 0 -6 8.4 4.9
0 0 -6 5.6 4.3
0 0 -6 5.5 2.3
0 0 -6 2 1.7
0 0 -6 3.8 1.7
0 0 6 2.4 4.4
0 0 6 6.1 1.5
0 0 6 5.7 2.3
0 0 6 3.6 3.7
0 0 6 3.5 2.3
-1 0 -6 17.5 2.6
-1 0 -6 18.1 4.5
-1 0 -6 18.7 3.1
-1 0 -6 19.4 5.1
1 0 6 26.1 4
1 0 6 8.9 5.1
1 0 6 19.3 2.6
1 0 6 18.7 3.1
1 0 6 12.4 4.9
1 0 6 16.5 3.9
-2 0 -6 7 3.3
-2 0 -6 4.3 3.7
-2 0 -6 5.7 3.8
-2 0 -6 8.3 4
-2 0 -6 8.7 1.8
2 0 6 9.7 3
2 0 6 9.4 4.8
2 0 6 8.1 1.7
2 0 6 13.8 5.3
2 0 6 10.8 3.5
-3 0 -6 70.89 6.2
-3 0 -6 70.19 7.2
3 0 6 90.99 10.3
3 0 6 58.79 9.1
3 0 6 60.59 6.5
-4 0 -6 9.9 5
-4 0 -6 15 4.5
4 0 6 19 7.7
4 0 6 16.7 4.4
-5 0 -6 -2.8 5.4
-5 0 -6 10.4 5.4
5 0 6 -2.3 4.5
5 0 6 -1.2 9.9
-6 0 -6 3.6 7.4
-6 0 -6 2.3 6.2
6 0 6 -0.3 5
6 0 6 -9.3 10.8
6 0 6 25.7 13.3
-7 0 -6 17 8.5
-7 0 -6 10.3 8.6
7 0 6 39.1 17.8
7 0 6 14.9 14.8
-8 0 -6 18.4 10.1
8 0 6 12.5 20.4
8 0 6 16.5 21.7
10 -1 -6 21.7 19.8
10 -1 -6 5.5 24.1
10 -1 -6 34.6 25.4
-10 1 6 3 10.8
-10 1 6 -19.6 8.4
9 -1 -6 -3.5 21.8
9 -1 -6 18.8 15.8
9 -1 -6 32.7 18.8
-9 1 6 5.9 9
-9 1 6 14.3 7
8 -1 -6 -13.8 11.4
8 -1 -6 9 16.9
8 -1 -6 11.3 14.2
-8 1 6 -3.5 6.7
-8 1 6 6 5.7
7 -1 -6 21.5 9.7
7 -1 -6 15.1 12.8
7 -1 -6 10.7 11.3
-7 1 6 17.5 5.4
-7 1 6 12.9 4.5
6 -1 -6 -1.6 7.4
6 -1 -6 23.3 11
6 -1 -6 9.2 9.3
-6 1 6 9.3 4.3
-6 1 6 3.1 3.6
5 -1 -6 6.3 7
5 -1 -6 11.7 8.6
5 -1 -6 3.7 2.6
5 -1 -6 7.3 5.6
-5 1 6 0.5 2.9
-5 1 6 0.1 3.1
-5 1 6 3.7 2.8
4 -1 -6 18.8 7.6
4 -1 -6 20.4 6
4 -1 -6 20.6 2.8
4 -1 -6 17.2 6
-4 1 6 28.4 4.3
-4 1 6 21.9 3.2
3 -1 -6 52.89 7.6
3 -1 -6 67.39 9.3
3 -1 -6 56.09 7.6
3 -1 -6 55.79 4.5
3 -1 -6 54.19 4.5
-3 1 6 50.49 4.2
-3 1 6 54.79 4.7
-3 1 6 49.2 7.8
-3 1 6 54.89 8.8
2 -1 -6 189.38 9.4
2 -1 -6 189.38 8
2 -1 -6 191.18 11.8
2 -1 -6 186.58 10.3
2 -1 -6 171.08 7.3
-2 1 6 187.48 7.5
-2 1 6 193.68 8.3
-2 1 6 150.98 11.4
-2 1 6 188.58 10.1
-2 1 6 186.78 10.7
1 -1 -6 408.86 13.2
1 -1 -6 433.06 14.6
1 -1 -6 431.96 18
1 -1 -6 430.06 14.7
-1 1 6 452.85 14.9
-1 1 6 409.06 13.3
-1 1 6 381.76 17.5
-1 1 6 410.06 15.2
-1 1 6 424.86 17
0 -1 -6 6 5
0 -1 -6 4.3 1.7
0 -1 -6 0.9 2.4
0 -1 -6 1.6 2.4
0 -1 -6 6.4 4.9
0 1 6 -3.3 4.8
0 1 6 -0.5 2.8
0 1 6 0.1 1.3
0 1 6 5 4.4
-1 -1 -6 23.8 3.7
-1 -1 -6 29.6 5.2
-1 -1 -6 24.1 4.9
-1 -1 -6 27.7 4
-1 -1 -6 20.1 2.6
1 1 6 27.4 2.5
1 1 6 29.8 5.1
1 1 6 21.4 6.9
1 1 6 26.5 4.3
1 1 6 22.2 5.9
1 1 6 22.1 3.8
-2 -1 -6 30 4.5
-2 -1 -6 41.2 6
-2 -1 -6 37.1 5.2
2 1 6 32.1 6.3
2 1 6 36.3 5.4
2 1 6 29.2 5.5
-3 -1 -6 -1.6 3.7
-3 -1 -6 -4 3.7
3 1 6 3.5 6.2
3 1 6 2.9 3.6
-4 -1 -6 11.5 5.2
-4 -1 -6 2.3 4.8
4 1 6 11 7.9
4 1 6 15.6 4.9
-5 -1 -6 31.8 7.4
-5 -1 -6 31.6 6.6
5 1 6 25.7 11.5
5 1 6 38.8 6.1
-6 -1 -6 29.1 9.1
-6 -1 -6 32.1 8.1
6 1 6 35.4 13
6 1 6 -0.6 16
6 1 6 14 5.6
-7 -1 -6 23.3 9.7
-7 -1 -6 36.7 10.8
7 1 6 35.6 19.1
7 1 6 34.8 17
-8 -1 -6 47.8 12.1
-8 -1 -6 61.39 13.3
8 1 6 42.6 21.9
8 1 6 49.9 24.2
10 -2 -6 -15.4 22.4
10 -2 -6 -1.5 19.3
10 -2 -6 -3.3 23.2
-10 2 6 15.1 10.5
-10 2 6 14.5 8.8
9 -2 -6 76.09 21
9 -2 -6 64.29 17.9
9 -2 -6 80.79 21.4
-9 2 6 57.79 10
-9 2 6 58.59 8.4
8 -2 -6 158.48 23.3
8 -2 -6 100.79 19.9
8 -2 -6 143.29 19
-8 2 6 136.09 12
-8 2 6 139.59 11.3
7 -2 -6 -3.4 11.8
7 -2 -6 18 12
7 -2 -6 8.6 9.2
-7 2 6 4.3 4.1
-7 2 6 5.2 4.6
6 -2 -6 145.59 17.2
6 -2 -6 148.29 18
6 -2 -6 157.48 14.2
-6 2 6 149.19 8.8
-6 2 6 138.59 8.8
-6 2 6 146.19 8.6
-6 2 6 133.49 7.9
5 -2 -6 4.4 6.1
5 -2 -6 6 8
5 -2 -6 12.9 3.4
5 -2 -6 11.7 6.9
-5 2 6 9 3.2
-5 2 6 5.7 3
4 -2 -6 16.7 6.2
4 -2 -6 15.7 3
4 -2 -6 21.2 7.3
4 -2 -6 8.6 5.3
4 -2 -6 11 2.9
-4 2 6 17.7 2.9
-4 2 6 13.6 2.9
3 -2 -6 29.7 6.9
3 -2 -6 39.6 6.8
3 -2 -6 27.5 5.8
3 -2 -6 24.8 3.6
3 -2 -6 24.1 3.7
-3 2 6 27.1 6.7
-3 2 6 34.5 4.2
-3 2 6 32.4 3.9
-3 2 6 29.9 5.8
2 -2 -6 712.73 26.7
2 -2 -6 745.73 24.6
2 -2 -6 758.52 25
2 -2 -6 713.73 21.5
2 -2 -6 696.33 22.6
-2 2 6 720.93 21.7
-2 2 6 730.73 25.4
-2 2 6 687.33 24.5
-2 2 6 740.43 23
1 -2 -6 89.89 6.2
1 -2 -6 95.39 8.5
1 -2 -6 93.29 9.6
1 -2 -6 95.49 7.3
1 -2 -6 93.99 4.7
-1 2 6 98.09 4.9
-1 2 6 93.49 6
-1 2 6 76.19 10.4
-1 2 6 97.19 8
-1 2 6 90.89 7.8
0 -2 -6 29 6
0 -2 -6 22.5 5.1
0 -2 -6 28.4 4.4
0 -2 -6 14.8 3.4
0 -2 -6 22.6 2.8
0 2 6 17 5.6
0 2 6 25.3 4.1
0 2 6 15.9 4.2
0 2 6 24.7 2.7
-1 -2 -6 57.79 6.3
-1 -2 -6 64.09 6.8
-1 -2 -6 55.89 7.4
1 2 6 57.69 5.6
1 2 6 69.39 7.9
1 2 6 61.39 7.5
-2 -2 -6 155.98 9.7
2 2 6 153.88 12.9
2 2 6 169.28 9.1
-3 -2 -6 7.7 5
-3 -2 -6 -1.3 4.4
3 2 6 -14.1 7.2
3 2 6 -3.7 4.2
-4 -2 -6 2.9 5.7
-4 -2 -6 4.5 5.7
4 2 6 1.5 4.9
4 2 6 1.7 9.1
-5 -2 -6 131.39 11.8
-5 -2 -6 141.49 12.5
5 2 6 158.98 21.8
5 2 6 126.79 10.4
-6 -2 -6 40.7 9.9
-6 -2 -6 36.4 10.2
6 2 6 35.5 16.7
6 2 6 8 14.8
-7 -2 -6 3 9.8
-7 -2 -6 20.7 10.5
7 2 6 28.5 17.7
7 2 6 9 20.8
-8 -2 -6 37.3 12.9
8 2 6 16.3 27.6
8 2 6 40.2 23.6
10 -3 -6 15 23.7
10 -3 -6 5.3 19.7
10 -3 -6 -32.6 21.6
-10 3 6 6.7 9.2
-10 3 6 -7.2 8.8
9 -3 -6 63.49 19.8
9 -3 -6 45.1 19.6
9 -3 -6 56.89 15.5
-9 3 6 44.6 7.9
-9 3 6 43.1 8.5
8 -3 -6 47.3 16.9
8 -3 -6 62.49 13.3
8 -3 -6 88.89 18.2
-8 3 6 52.09 8.5
-8 3 6 34.1 6.4
7 -3 -6 18.4 11.5
7 -3 -6 34.2 12.6
7 -3 -6 33.8 10.3
-7 3 6 9.6 4.8
-7 3 6 14.5 4.8
-7 3 6 13.5 4.3
6 -3 -6 30.8 10
6 -3 -6 5.3 8.7
6 -3 -6 18.8 10
-6 3 6 16.7 4.3
-6 3 6 12.5 3.9
5 -3 -6 24.2 4.5
5 -3 -6 29.6 9.3
5 -3 -6 29 7.7
5 -3 -6 28.4 8.8
-5 3 6 24.2 4
-5 3 6 24.4 3.9
4 -3 -6 3.8 2.5
4 -3 -6 8.8 5.1
4 -3 -6 9.8 6.9
4 -3 -6 5.9 5.7
-4 3 6 8.7 3.2
-4 3 6 6.5 2.7
3 -3 -6 27 5
3 -3 -6 39.8 7.9
3 -3 -6 31.8 6.3
3 -3 -6 30.3 3.4
-3 3 6 21.2 3.2
-3 3 6 46 6.2
-3 3 6 34.9 5.2
2 -3 -6 306.97 14.7
2 -3 -6 292.27 16.8
2 -3 -6 309.07 13.3
-2 3 6 303.37 13.6
-2 3 6 312.27 12.6
-2 3 6 313.27 11.1
1 -3 -6 2 6
1 -3 -6 3.2 4
1 -3 -6 2 2
1 -3 -6 4.3 4.1
-1 3 6 1.2 2
-1 3 6 8 3
-1 3 6 7 5.8
-1 3 6 3.9 5.1
0 -3 -6 6.3 1.9
0 -3 -6 -3.6 4.5
0 -3 -6 2.2 3.4
0 -3 -6 5 3.9
0 3 6 2.7 1.8
0 3 6 2.9 2.8
0 3 6 -7.3 6.4
-1 -3 -6 48.1 7.6
-1 -3 -6 43.2 5.7
-1 -3 -6 44.9 6.1
1 3 6 61.39 8.5
1 3 6 55.69 5.9
-2 -3 -6 6.9 5.6
-2 -3 -6 0.5 4.9
-2 -3 -6 -1.8 4.1
2 3 6 2.4 3.8
2 3 6 14.8 6.6
-3 -3 -6 35.7 7.3
-3 -3 -6 25 6.4
3 3 6 39.3 10.7
3 3 6 22.1 5.2
-4 -3 -6 80.29 9.8
-4 -3 -6 78.89 10.5
4 3 6 72.79 9.3
4 3 6 75.69 14.5
-5 -3 -6 234.08 16.4
-5 -3 -6 180.08 15.5
5 3 6 189.68 29.5
5 3 6 197.58 12.9
-6 -3 -6 17.1 10.1
-6 -3 -6 14.2 10.2
6 3 6 33.1 19.2
-7 -3 -6 44 12.7
-7 -3 -6 57.79 12.1
7 3 6 32.5 21.7
7 3 6 63.29 24.8
10 -4 -6 2.8 21.5
10 -4 -6 10.3 21.6
-10 4 6 -14 8.1
9 -4 -6 12 17.9
9 -4 -6 -8.3 19.7
-9 4 6 4 7.8
8 -4 -6 14.4 14.4
8 -4 -6 -14.1 15.1
8 -4 -6 -5.3 12.1
-8 4 6 6.7 5.2
-8 4 6 -2.1 5.9
7 -4 -6 -2.3 11.5
7 -4 -6 -4.2 10
7 -4 -6 -2 12.3
-7 4 6 3.5 4.5
-7 4 6 1.8 5.4
6 -4 -6 9.3 8.9
6 -4 -6 7 9.7
6 -4 -6 0.3 3.8
-6 4 6 -1.3 3.9
-6 4 6 1.5 3.9
5 -4 -6 25.2 8.5
5 -4 -6 25.7 9
-5 4 6 11.4 3.7
-5 4 6 11.9 3.7
4 -4 -6 3 6.1
4 -4 -6 23.6 8.6
-4 4 6 2.1 3.2
-4 4 6 5.1 3
3 -4 -6 12.7 5.9
3 -4 -6 12.7 7.4
-3 4 6 10.8 2.8
-3 4 6 3.8 3.1
2 -4 -6 93.49 7
2 -4 -6 101.39 11.4
2 -4 -6 104.29 9.9
-2 4 6 84.89 6.9
-2 4 6 85.19 8.7
-2 4 6 107.79 6.1
1 -4 -6 34 6
1 -4 -6 35.1 4.1
1 -4 -6 41 7.6
1 -4 -6 44.2 6.7
-1 4 6 28 6.8
-1 4 6 37.9 4.2
-1 4 6 35.8 4.9
0 -4 -6 -1.2 4.7
0 -4 -6 2.5 2.2
0 -4 -6 -0.5 3.2
0 -4 -6 2.5 5.7
0 4 6 2.2 2.2
0 4 6 3.2 3.7
-1 -4 -6 16.9 6
-1 -4 -6 17.2 6.1
-1 -4 -6 23.8 5.2
1 4 6 22.9 4.7
1 4 6 35.3 7.7
-2 -4 -6 3.4 6.1
-2 -4 -6 8.4 5.7
-2 -4 -6 8.7 5.4
2 4 6 13.1 8.1
2 4 6 8.4 4.5
-3 -4 -6 2.3 5.7
-3 -4 -6 -3 6
3 4 6 3.3 5.3
3 4 6 -10.5 10
-4 -4 -6 85.99 11.6
-4 -4 -6 59.99 10.1
4 4 6 73.99 11
4 4 6 53.59 16.4
-5 -4 -6 17.1 9.3
-5 -4 -6 18.3 9.5
5 4 6 10.9 7.3
5 4 6 3.1 17.2
-6 -4 -6 11 9.9
-6 -4 -6 18.2 11.2
6 4 6 25.1 22.9
-7 -4 -6 34.4 14.4
-7 -4 -6 33.2 13.1
7 4 6 44.8 24.1
7 4 6 23.8 28.2
10 -5 -6 28.5 22.2
10 -5 -6 22 23.5
-10 5 6 20.2 9.7
9 -5 -6 36 19.7
9 -5 -6 -1.2 18.4
-9 5 6 11.4 7.7
8 -5 -6 7.2 15.4
8 -5 -6 6.5 14.9
-8 5 6 6.7 5.6
-8 5 6 10.1 6.4
7 -5 -6 -23.1 12.4
7 -5 -6 -14.3 11.1
-7 5 6 4 4.6
-7 5 6 -9.5 5
6 -5 -6 16.4 10.1
6 -5 -6 24.7 10.2
-6 5 6 17.3 4.8
-6 5 6 20.4 4.8
5 -5 -6 68.89 11.9
5 -5 -6 110.29 15.2
-5 5 6 73.39 7.2
-5 5 6 80.99 8
4 -5 -6 17.8 7.6
4 -5 -6 16.4 9
-4 5 6 8.3 3.9
-4 5 6 9.7 3.4
3 -5 -6 24.5 7.2
3 -5 -6 23.5 8.8
-3 5 6 19.2 3.6
-3 5 6 23.1 4.4
2 -5 -6 30.2 7.1
2 -5 -6 30.5 8.8
-2 5 6 26.1 4.7
-2 5 6 17.2 6.2
-2 5 6 32.2 4
1 -5 -6 59.39 9.9
1 -5 -6 58.69 6.7
1 -5 -6 56.39 9.2
-1 5 6 59.89 7.2
-1 5 6 39.6 8.3
-1 5 6 63.29 5.1
0 -5 -6 -0.9 4.3
0 -5 -6 -1.1 6.4
0 -5 -6 -2.5 5.8
0 -5 -6 4 2.7
0 5 6 3.7 4
0 5 6 -2.6 2.7
-1 -5 -6 117.99 9.6
-1 -5 -6 99.79 12
-1 -5 -6 97.29 10.8
1 5 6 117.99 9.6
1 5 6 106.39 15.2
-2 -5 -6 23.3 8.1
-2 -5 -6 35.5 7
-2 -5 -6 36.6 7.4
2 5 6 40.9 6.5
2 5 6 24.6 10.6
-3 -5 -6 18.4 8.7
-3 -5 -6 19.8 7
3 5 6 10 6.5
3 5 6 15.7 13.5
-4 -5 -6 56.89 10.6
-4 -5 -6 30.9 9.3
4 5 6 7.4 7.8
4 5 6 25.1 17.4
-5 -5 -6 8.4 9.7
-5 -5 -6 5.1 10.5
5 5 6 8.3 20
-6 -5 -6 11.3 12.9
-6 -5 -6 7.6 11.5
6 5 6 -13.3 21.5
6 5 6 24.1 24.8
9 -6 -6 11.8 18.8
-9 6 6 14.5 8
8 -6 -6 -19.4 14.2
8 -6 -6 -12.7 15.4
-8 6 6 -10.3 6.2
-8 6 6 -0.3 6.7
7 -6 -6 28.1 12.7
7 -6 -6 47.9 14.6
-7 6 6 44.9 7.2
-7 6 6 45 6.8
6 -6 -6 46.8 13.2
-6 6 6 70.79 9
-6 6 6 69.79 9.3
5 -6 -6 -2.4 9.1
5 -6 -6 6.1 9
-5 6 6 2.7 3.9
-5 6 6 -3.6 4.6
4 -6 -6 1.6 7.4
4 -6 -6 11 8.9
-4 6 6 -8 4.3
-4 6 6 2.1 3.6
3 -6 -6 116.09 14.3
3 -6 -6 126.29 14
-3 6 6 125.19 7.9
-3 6 6 114.39 9.3
2 -6 -6 41.5 8.1
2 -6 -6 56.99 10.4
-2 6 6 64.79 7.7
-2 6 6 50.19 5.8
1 -6 -6 48.4 8.6
1 -6 -6 59.39 9.9
1 -6 -6 61.49 8.1
-1 6 6 68.59 8
-1 6 6 61.39 5.8
0 -6 -6 121.29 13.6
0 -6 -6 137.29 9.6
0 -6 -6 102.89 8.7
0 -6 -6 143.09 13
0 6 6 132.99 7.3
0 6 6 122.09 10.4
-1 -6 -6 44.2 9.4
-1 -6 -6 56.79 8.7
-1 -6 -6 66.29 11
1 6 6 73.69 13.1
1 6 6 61.69 8.2
-2 -6 -6 223.98 19.6
-2 -6 -6 239.58 14.3
-2 -6 -6 234.28 16.8
2 6 6 251.17 26.9
2 6 6 190.08 14.3
-3 -6 -6 17.9 9.5
-3 -6 -6 17.4 9.1
3 6 6 16.1 8.1
3 6 6 15.4 15.9
-4 -6 -6 9.7 10
-4 -6 -6 9.3 9
4 6 6 -12.2 8.8
4 6 6 14.8 21.2
-5 -6 -6 5.9 12.3
-5 -6 -6 7.9 10.9
5 6 6 29.5 25.4
9 -7 -6 -19.2 17
9 -7 -6 10 20.4
-9 7 6 3.1 9.1
8 -7 -6 0.6 15.9
-8 7 6 -2.8 8.2
-8 7 6 9 8.1
7 -7 -6 1.5 12.7
7 -7 -6 25.8 14.6
-7 7 6 22.4 7.3
-7 7 6 24.1 6.4
6 -7 -6 -4.8 10.9
6 -7 -6 7.1 12.8
-6 7 6 6.7 6
-6 7 6 17.6 6.5
5 -7 -6 -1.8 9.8
5 -7 -6 6.8 11
-5 7 6 6.8 4.7
-5 7 6 1.5 5.7
4 -7 -6 -13.2 8.6
4 -7 -6 9.9 9.1
-4 7 6 0.7 5.4
-4 7 6 3.5 4.4
3 -7 -6 6.5 8.1
3 -7 -6 16.7 8.5
-3 7 6 21.8 4.7
-3 7 6 21.6 6.1
2 -7 -6 -13 7.7
2 -7 -6 -6.8 7.6
-2 7 6 6.7 3.9
-2 7 6 -8.1 5
1 -7 -6 17.6 8.3
1 -7 -6 28.7 8.1
-1 7 6 24 4.5
-1 7 6 19.9 5.9
0 -7 -6 8.3 5.5
0 -7 -6 -8.2 7.4
0 -7 -6 12.1 9.2
0 7 6 5.6 6
0 7 6 -3.2 4.1
-1 -7 -6 -1.6 8.1
-1 -7 -6 22.4 6.6
-1 -7 -6 14.8 10
1 7 6 4.6 7.1
1 7 6 -5.9 13.5
-2 -7 -6 31.3 8.2
-2 -7 -6 43.3 11.4
-2 -7 -6 26 12.1
2 7 6 25.4 8.5
2 7 6 47.3 18.1
-3 -7 -6 1 9
-3 -7 -6 15.8 11.1
3 7 6 9.4 9.7
3 7 6 40.9 20.9
-4 -7 -6 -0.5 10.8
-4 -7 -6 4.5 11.7
4 7 6 -17.3 14.2
4 7 6 20.7 24.4
8 -8 -6 -1.1 17.3
8 -8 -6 -29.5 15.1
-8 8 6 15.2 8.3
-8 8 6 -0.8 8.8
7 -8 -6 41.9 16.1
7 -8 -6 27.7 14.1
-7 8 6 48.2 8.2
-7 8 6 61.69 9.6
6 -8 -6 76.79 15.9
6 -8 -6 52.89 13.4
-6 8 6 83.79 13.5
-6 8 6 100.39 11.4
5 -8 -6 21.8 11.8
5 -8 -6 -9.2 10.4
-5 8 6 6.8 6.1
-5 8 6 7.5 7.3
4 -8 -6 3.1 9.5
4 -8 -6 18.1 11.7
-4 8 6 17.5 6.3
-4 8 6 11.7 7.2
3 -8 -6 3.6 9.3
3 -8 -6 4.3 9.5
-3 8 6 1.3 4.8
-3 8 6 5.2 6.4
2 -8 -6 25.7 9.2
2 -8 -6 6.1 9.3
-2 8 6 5 4.5
-2 8 6 9.5 6.7
1 -8 -6 56.59 12
1 -8 -6 53.99 8.1
1 -8 -6 33.9 11.4
-1 8 6 41.3 5.7
-1 8 6 35.9 8.1
0 -8 -6 19.8 6.6
0 -8 -6 4.4 10.4
0 -8 -6 21.4 10
0 8 6 12.3 16.5
0 8 6 10.8 4.3
0 8 6 23.3 8
-1 -8 -6 19 10.3
-1 -8 -6 4.3 11.8
-1 -8 -6 -2.6 7.4
1 8 6 6.6 17.2
1 8 6 6.6 9.1
-2 -8 -6 12.2 11.7
-2 -8 -6 -3.8 8.8
2 8 6 -4.7 9.7
2 8 6 -19 20.2
-3 -8 -6 15.1 12.7
-3 -8 -6 -6.9 11
3 8 6 1.5 11.2
3 8 6 18.6 24.7
8 -9 -6 -26 19.1
-8 9 6 0.1 9.1
-8 9 6 0.2 10.2
7 -9 -6 18.8 14.2
7 -9 -6 21.1 16.3
-7 9 6 6.8 9.3
-7 9 6 7.1 8.2
6 -9 -6 51.39 15.7
6 -9 -6 32.3 15.1
-6 9 6 37.3 10.1
-6 9 6 42.7 8.4
5 -9 -6 4 13.3
5 -9 -6 15.4 12.4
-5 9 6 1.1 6.9
-5 9 6 11 8.3
4 -9 -6 -19.2 10.6
4 -9 -6 26.8 12.8
-4 9 6 2.7 7.9
-4 9 6 -1.3 6.6
3 -9 -6 17.2 12.3
3 -9 -6 -10.9 10.5
-3 9 6 4.6 7.9
-3 9 6 -2.5 6.3
2 -9 -6 31.1 11.5
2 -9 -6 14 11.4
-2 9 6 10.7 5.8
-2 9 6 18.5 8.3
1 -9 -6 76.99 13.4
1 -9 -6 36.8 13.7
-1 9 6 52.49 9.7
-1 9 6 73.29 9.1
0 -9 -6 8.4 12.9
0 -9 -6 29.7 7.9
0 -9 -6 46.3 13
0 9 6 55.89 19.7
0 9 6 23.8 9.4
-1 -9 -6 3.3 14.5
-1 -9 -6 21.8 9.1
-1 -9 -6 5.8 12.2
1 9 6 0.9 21.9
1 9 6 13 10.6
-2 -9 -6 20.4 12
-2 -9 -6 24.7 16.9
-2 -9 -6 -10.6 13.3
2 9 6 -10.1 12.4
2 9 6 8.6 26.4
7 -10 -6 24.3 19.9
-7 10 6 27.5 11.4
-7 10 6 23 10
6 -10 -6 -17 16
6 -10 -6 7.5 14.8
-6 10 6 2.8 10.2
-6 10 6 6.9 8.3
5 -10 -6 -10.8 14.6
5 -10 -6 7.8 13.3
-5 10 6 9.5 9.5
-5 10 6 3.5 8.1
4 -10 -6 -5.1 12.9
4 -10 -6 26.4 12.4
-4 10 6 7.2 7.6
-4 10 6 4 9.7
3 -10 -6 -0.5 13.4
3 -10 -6 0.7 13.1
-3 10 6 7.2 9.3
-3 10 6 10.5 7.6
2 -10 -6 14.7 12.4
2 -10 -6 1.1 12.8
-2 10 6 8.6 7.8
-2 10 6 19.1 9.8
1 -10 -6 6.7 14.7
1 -10 -6 57.29 14
-1 10 6 24.2 10.2
0 -10 -6 -2.2 14.8
0 -10 -6 40.2 14.4
0 10 6 24.7 11.6
0 10 6 11.6 24
-1 -10 -6 54.59 18.9
-1 -10 -6 52.89 16.6
1 10 6 59.29 30.8
5 -11 -6 45.8 15.6
5 -11 -6 -9.3 16.6
-5 11 6 5.5 12
-5 11 6 14 9.8
4 -11 -6 36.5 14.6
4 -11 -6 -6.3 16
-4 11 6 1.7 9.4
-4 11 6 -9.7 11.4
3 -11 -6 36.4 15
3 -11 -6 38 16.1
-3 11 6 23.3 11.7
-3 11 6 6.7 9.7
2 -11 -6 55.09 15.2
2 -11 -6 -6 16.7
-2 11 6 35.6 13
-2 12 -7 8.4 10.3
-2 12 -7 -23.4 15.7
2 -12 7 20.5 17.8
1 11 -7 14.3 23.7
1 11 -7 33 13.8
1 11 -7 26 21.4
1 11 -7 13.3 11.1
0 11 -7 -6.4 9.8
0 11 -7 -14.3 12.7
0 11 -7 -5.5 17.7
0 -11 7 -7.2 14.5
0 -11 7 -3.7 15.3
-1 11 -7 -6.8 13.2
-1 11 -7 -5.2 9.6
-1 11 -7 -2.9 16.2
1 -11 7 16.3 13.8
1 -11 7 3.6 13.9
-2 11 -7 -4.1 13.4
-2 11 -7 19.5 8.8
2 -11 7 0.2 13.4
2 -11 7 37.8 13.6
-3 11 -7 0.7 14
-3 11 -7 13.4 8
3 -11 7 31 13.7
3 -11 7 -22.2 13.1
-4 11 -7 9.9 13.7
-4 11 -7 8.4 8.2
4 -11 7 13 13.5
4 -11 7 29.4 13.1
-5 11 -7 9.9 8.4
-5 11 -7 28.7 13.1
5 -11 7 -6.1 14.6
5 -11 7 -11 13.8
3 10 -7 55.09 44.8
3 10 -7 35.2 24
3 10 -7 66.89 29.3
3 10 -7 23.2 11.4
2 10 -7 30.7 24.1
2 10 -7 16.5 10.6
2 10 -7 12.6 11.6
2 10 -7 30.7 20.3
2 10 -7 22.9 36.5
1 10 -7 3.6 27.8
1 10 -7 28.3 17.4
1 10 -7 -2.5 10.3
1 10 -7 5.5 11.7
1 10 -7 -14.2 21.7
-1 -10 7 -15.2 12.4
-1 -10 7 30.4 12.9
0 10 -7 51.89 12.5
0 10 -7 26.8 14.4
0 10 -7 53.49 10.6
0 10 -7 49.3 17.4
0 -10 7 28.1 11.3
0 -10 7 38.3 14.3
-1 10 -7 24.5 13.7
-1 10 -7 27.5 14.4
-1 10 -7 55.49 9
-1 10 -7 51.99 12.6
1 -10 7 43.6 11
1 -10 7 59.39 12.6
-2 10 -7 22.6 8.3
-2 10 -7 15.5 11.2
-2 10 -7 45.1 12
2 -10 7 16.8 10.4
2 -10 7 26.4 10.8
-3 10 -7 22.2 7.7
-3 10 -7 35.9 12.7
3 -10 7 22.1 10.3
3 -10 7 15.7 12.4
-4 10 -7 50.79 8.5
-4 10 -7 75.79 13
4 -10 7 39.7 11.6
4 -10 7 21.4 11.7
-5 10 -7 13.2 8
-5 10 -7 14.6 11.1
5 -10 7 0.9 11.1
5 -10 7 30.6 14
-6 10 -7 24.7 11
-6 10 -7 18.2 8.3
6 -10 7 31.6 11.7
6 -10 7 11 15.1
4 9 -7 -23.7 10.1
4 9 -7 -5.3 22.6
4 9 -7 11.9 25.4
4 9 -7 -40.7 38.4
-4 -9 7 4.1 7.1
-4 -9 7 -10.8 10.4
3 9 -7 -9.6 35.1
3 9 -7 24.5 22.3
3 9 -7 13.8 9.8
3 9 -7 -9.1 10
3 9 -7 8 19.7
-3 -9 7 -4.6 6.3
2 9 -7 19.4 8.9
2 9 -7 8.2 16.4
2 9 -7 6.1 28.4
2 9 -7 11.4 9.9
2 9 -7 2.4 20.1
-2 -9 7 40.7 11.5
-2 -9 7 -5.8 6.5
1 9 -7 10.9 9.1
1 9 -7 9.7 13.8
1 9 -7 28.4 10.9
1 9 -7 32.4 21.9
1 9 -7 3.5 16.4
-1 -9 7 12.3 6.4
-1 -9 7 34.2 10.1
-1 -9 7 27.4 10.7
0 9 -7 -0.1 14.2
0 9 -7 -1.4 9.5
0 9 -7 -0.3 11.5
0 9 -7 1.6 8.1
0 -9 7 8 10.2
0 -9 7 15 9.1
-1 9 -7 4.5 7
-1 9 -7 4.3 12.2
-1 9 -7 7.1 9.1
1 -9 7 11.3 8.6
1 -9 7 12 8.4
-2 9 -7 23.6 7
-2 9 -7 42.7 11.2
-2 9 -7 4.6 11.5
2 -9 7 47.8 10.7
2 -9 7 10.3 8.4
-3 9 -7 72.89 8.6
-3 9 -7 64.29 11.5
3 -9 7 57.39 10.5
3 -9 7 43.3 9.3
-4 9 -7 45.6 11.9
-4 9 -7 59.29 8.5
4 -9 7 62.49 11.3
4 -9 7 30.7 10.8
-5 9 -7 11.3 9.4
-5 9 -7 13.2 6.9
5 -9 7 5.2 9.3
5 -9 7 7.9 11.2
-6 9 -7 0.3 8.7
-6 9 -7 17.2 7
6 -9 7 10.3 13.8
6 -9 7 35.6 10.3
-7 9 -7 21.2 8.4
-7 9 -7 4.8 9.3
7 -9 7 -3.5 16
7 -9 7 12.2 10.5
5 8 -7 42.3 27.1
5 8 -7 26.6 23.8
5 8 -7 18.6 14.5
5 8 -7 52.89 35.2
-5 -8 7 26.4 11.1
-5 -8 7 61.09 14.1
4 8 -7 28.6 19.4
4 8 -7 -24.4 22.7
4 8 -7 1.5 29.9
4 8 -7 17.5 11.7
-4 -8 7 9.5 9.4
-4 -8 7 0.3 6.7
3 8 -7 27.9 19.2
3 8 -7 12.2 8.3
3 8 -7 49.9 27.7
3 8 -7 0.5 15.4
3 8 -7 20.4 9.9
-3 -8 7 17.9 9.4
-3 -8 7 12.3 8.8
-3 -8 7 12.3 5.7
2 8 -7 40.2 14
2 8 -7 38.9 9
2 8 -7 33.6 16.5
2 8 -7 39.4 9
2 8 -7 62.09 22.2
-2 -8 7 23.5 5.8
-2 -8 7 23.4 9.1
1 8 -7 5 11.1
1 8 -7 -2.3 7.2
1 8 -7 12.7 16.3
1 8 -7 11.4 13
1 8 -7 5.2 7
-1 -8 7 4.7 7.9
-1 -8 7 1.8 7.5
-1 -8 7 11 4.7
0 8 -7 65.09 13.7
0 8 -7 55.49 10.9
0 8 -7 73.09 8.4
0 -8 7 65.79 8.5
0 -8 7 75.69 11.2
0 -8 7 75.69 10
-1 8 -7 4.4 5.9
-1 8 -7 -11.1 10
1 -8 7 -2.6 6.6
1 -8 7 9.1 6.7
-2 8 -7 10.9 5.8
-2 8 -7 -1 9.4
2 -8 7 19.2 7.1
2 -8 7 14.3 7.2
-3 8 -7 -14.7 9.2
-3 8 -7 11.1 5.7
3 -8 7 -1.6 7.8
3 -8 7 8.2 7.1
-4 8 -7 72.69 8.2
-4 8 -7 71.39 11.9
4 -8 7 69.49 11
4 -8 7 72.79 10.2
-5 8 -7 19.5 6.3
5 -8 7 21.5 8.8
5 -8 7 15.4 9.9
-6 8 -7 4 6.1
6 -8 7 -19.7 11.5
6 -8 7 -1 8.9
-7 8 -7 -1.1 7
-7 8 -7 0.5 8.4
7 -8 7 1.2 9.5
7 -8 7 -29.5 14.1
-8 8 -7 -13.2 9.2
-8 8 -7 8.8 7.4
8 -8 7 3.4 18.6
8 -8 7 -20.7 10.7
6 7 -7 -18.2 22.8
6 7 -7 -8.4 31.6
6 7 -7 64.99 27.9
-6 -7 7 6 10.7
5 7 -7 -4.1 28.2
5 7 -7 7.1 20.2
5 7 -7 6.9 21.6
-5 -7 7 -0.3 8.8
-5 -7 7 5 6.4
4 7 -7 10.9 17.5
4 7 -7 22.5 24.7
4 7 -7 4.4 15.2
4 7 -7 11.5 6.9
-4 -7 7 3.2 7.8
-4 -7 7 4.2 5.5
-4 -7 7 6.3 8.7
3 7 -7 -2.5 12.6
3 7 -7 -20.6 19.4
3 7 -7 6.3 15.9
3 7 -7 -4.1 6.8
-3 -7 7 7.8 4.9
-3 -7 7 0.7 7.1
-3 -7 7 -0.2 6.8
2 7 -7 155.58 21.4
2 7 -7 193.98 22
2 7 -7 173.28 15
2 7 -7 162.48 14.7
2 7 -7 177.48 26.5
-2 -7 7 168.88 13.2
-2 -7 7 159.58 10.2
1 7 -7 -6.6 12.5
1 7 -7 2.4 6.2
1 7 -7 -3.8 10.1
1 7 -7 -0.6 8.4
-1 -7 7 0 6
-1 -7 7 -5.2 4
-1 -7 7 4.2 6.2
0 7 -7 6.3 5.4
0 7 -7 3.4 7.2
0 7 -7 2.4 9.4
0 -7 7 9 5.7
0 -7 7 2.1 5.5
0 -7 7 5.4 3.9
-1 7 -7 10.3 8.4
-1 7 -7 -4.6 8.5
-1 7 -7 1 4.6
1 -7 7 5.3 5.3
1 -7 7 2.8 3.7
1 -7 7 -4 5
-2 7 -7 39.5 9.9
-2 7 -7 38.9 5.9
2 -7 7 36.4 6.3
2 -7 7 38.2 7.3
-3 7 -7 12 5.1
-3 7 -7 16.7 9.1
3 -7 7 15.6 6.3
3 -7 7 4.9 6.8
-4 7 -7 14.2 8
-4 7 -7 16.4 4.9
4 -7 7 7.5 6.3
4 -7 7 3.7 7.5
-5 7 -7 24.6 6.1
-5 7 -7 24.2 5.5
5 -7 7 3.8 9.1
5 -7 7 16.7 7.2
-6 7 -7 13.1 5.7
-6 7 -7 18.3 6.3
6 -7 7 -0.3 10.8
6 -7 7 12 8.4
-7 7 -7 6.1 5.7
-7 7 -7 -0.1 7.1
7 -7 7 -7.2 8.2
7 -7 7 -3.2 15.2
-8 7 -7 9.4 10.2
-8 7 -7 -3.3 6.5
8 -7 7 -8.3 10
8 -7 7 -6.7 17
7 6 -7 10.3 29.3
7 6 -7 -15.2 30.4
7 6 -7 -1.6 23.4
-7 -6 7 -4.5 11
6 6 -7 -8.3 19.8
6 6 -7 64.69 27.3
6 6 -7 26.6 23.7
-6 -6 7 3.4 9.8
-6 -6 7 14.5 6.5
5 6 -7 22.7 19.5
5 6 -7 22.5 16.5
5 6 -7 -44 22.2
-5 -6 7 -5.9 8.5
-5 -6 7 -1.7 5.3
4 6 -7 -10.1 12.9
4 6 -7 3.2 6
4 6 -7 4 15.2
4 6 -7 12.9 19.8
-4 -6 7 8.2 4.7
-4 -6 7 -4.6 7.4
-4 -6 7 2.2 6.4
3 6 -7 3.4 10.7
3 6 -7 -5.6 11.1
3 6 -7 -10.4 14.7
-3 -6 7 3.5 5.6
-3 -6 7 5.6 5.7
-3 -6 7 7.1 4.3
2 6 -7 76.39 13.8
2 6 -7 53.09 14
2 6 -7 48.9 10.2
-2 -6 7 50.49 6.9
-2 -6 7 62.69 8.9
1 6 -7 74.29 12.3
1 6 -7 81.79 12.9
1 6 -7 95.19 16.5
-1 -6 7 50.49 8.2
-1 -6 7 73.09 6.9
0 6 -7 50.49 9.5
0 6 -7 34.6 6.9
0 6 -7 30.3 6.3
0 6 -7 36.8 6
0 -6 7 59.19 7.2
0 -6 7 46.7 6.1
0 -6 7 55.49 6.8
-1 6 -7 7.6 4.6
-1 6 -7 3.6 5.8
-1 6 -7 15.9 7.7
1 -6 7 3.1 4.1
1 -6 7 -1.9 3.1
1 -6 7 -3.7 4
-2 6 -7 23.4 4.5
-2 6 -7 24 6.7
-2 6 -7 42.6 9.2
2 -6 7 21.3 5.2
2 -6 7 24 5.7
2 -6 7 33.1 4.6
-3 6 -7 58.69 7.6
-3 6 -7 79.19 12.2
-3 6 -7 59.09 10
3 -6 7 61.39 7.7
3 -6 7 41 7.5
-4 6 -7 4.7 4.1
-4 6 -7 -3.9 6.2
4 -6 7 -7 5.4
4 -6 7 10.2 6.9
-5 6 -7 16.6 4.7
-5 6 -7 38.2 7.2
5 -6 7 31.1 6.9
5 -6 7 23.9 9.7
-6 6 -7 87.69 10.8
-6 6 -7 58.99 8.7
6 -6 7 73.09 13.4
6 -6 7 61.29 9
-7 6 -7 12.9 6.7
-7 6 -7 1.1 5.5
7 -6 7 11.1 13.8
7 -6 7 12.7 8.6
-8 6 -7 30.4 8.7
-8 6 -7 7.2 6.1
8 -6 7 -4.9 9.7
8 -6 7 20.8 17.4
7 5 -7 1.5 22.3
7 5 -7 -18.8 25.3
7 5 -7 20.7 25
-7 -5 7 0.6 7.1
6 5 -7 21.6 21.3
6 5 -7 -1.7 18.3
6 5 -7 7.2 18.4
-6 -5 7 -7.2 5.6
-6 -5 7 -2.1 7.9
5 5 -7 34.4 13.8
5 5 -7 31.7 19.8
5 5 -7 56.39 17.2
-5 -5 7 23.9 8
-5 -5 7 36.5 5.7
4 5 -7 14.3 10.9
4 5 -7 -5 11.3
4 5 -7 -8.9 14.7
-4 -5 7 9.7 6
-4 -5 7 6.7 4.3
-4 -5 7 14.6 5.4
3 5 -7 3.7 8.9
3 5 -7 8.5 12.5
3 5 -7 6.8 8.4
-3 -5 7 9.4 3.7
-3 -5 7 -3 4.7
-3 -5 7 -2.5 4.8
2 5 -7 82.19 12.8
2 5 -7 73.79 12.1
2 5 -7 62.79 9.6
2 5 -7 73.99 12.9
-2 -5 7 70.79 6.6
-2 -5 7 71.79 7.4
1 5 -7 14.8 8.4
1 5 -7 20 7.4
1 5 -7 5.6 5.5
1 5 -7 7.5 4.5
-1 -5 7 13.8 3.1
-1 -5 7 11 4.3
0 5 -7 9.2 6.4
0 -5 7 -2.9 3.1
0 -5 7 5.5 2.9
0 -5 7 -0.1 3.4
-1 5 -7 58.69 10.4
-1 5 -7 64.99 7.2
1 -5 7 62.89 5.7
1 -5 7 58.69 6.7
-2 5 -7 156.58 11.2
-2 5 -7 179.88 9.8
-2 5 -7 184.08 14.4
2 -5 7 163.88 10
2 -5 7 164.18 8.5
2 -5 7 151.48 9.6
-3 5 -7 34.5 9.3
-3 5 -7 35.8 5
-3 5 -7 28.6 7.6
3 -5 7 35.5 5.7
3 -5 7 30.1 6.7
-4 5 -7 1.6 6
-4 5 -7 -1.3 3.5
4 -5 7 4.6 4.6
4 -5 7 5 7.5
-5 5 -7 60.29 8
-5 5 -7 53.49 6.9
5 -5 7 44.8 7.6
5 -5 7 46.6 10.1
-6 5 -7 12.1 6.9
6 -5 7 10.1 10.4
6 -5 7 11.3 6.2
-7 5 -7 23.6 8
-7 5 -7 8.5 5
7 -5 7 17.6 7.7
7 -5 7 2.8 13.3
-8 5 -7 -5.9 8.9
-8 5 -7 -2.7 6.2
8 -5 7 -6.3 8.6
8 -5 7 5.2 19
8 4 -7 25.9 26.1
8 4 -7 30.5 28.3
8 4 -7 50.79 24.3
-8 -4 7 30.1 11
7 4 -7 -4.8 18.2
7 4 -7 -0.8 21.9
7 4 -7 3.9 19.3
-7 -4 7 12.9 8.7
-7 -4 7 -2 6.1
6 4 -7 21.5 16.1
6 4 -7 40.5 19
6 4 -7 22 15.5
-6 -4 7 16.9 5.3
-6 -4 7 31.1 8.1
5 4 -7 5.4 11.3
5 4 -7 -17.2 14
5 4 -7 -14.1 11.1
-5 -4 7 0.3 6
-5 -4 7 -0.4 4.1
4 4 -7 16.4 11.8
4 4 -7 11.1 9.3
4 4 -7 16.1 9
-4 -4 7 7 3.7
-4 -4 7 15 5
-4 -4 7 8.1 4.1
3 4 -7 2.4 9.5
3 4 -7 5.8 4.8
3 4 -7 7.3 7.4
3 4 -7 6 7
3 4 -7 6.2 7.9
-3 -4 7 4.5 3.8
-3 -4 7 0 3.9
-3 -4 7 4.4 3.1
2 4 -7 -3 7.7
2 4 -7 3.5 5.3
2 4 -7 -3.2 6
2 4 -7 4.5 4.1
-2 -4 7 -1.3 3.1
-2 -4 7 -1.7 2.7
1 4 -7 -4.1 3.6
1 4 -7 4.6 6.5
1 4 -7 0.6 5.8
-1 -4 7 3.2 2.4
-1 -4 7 -8.2 9.3
-1 -4 7 2.6 3.5
0 4 -7 103.89 11.1
0 -4 7 106.49 6
0 -4 7 106.09 7.2
-1 4 -7 11.7 3.8
-1 4 -7 28.3 7.2
1 -4 7 12.4 3.4
1 -4 7 19.5 2.9
-2 4 -7 25.7 8.7
-2 4 -7 1.3 3.3
2 -4 7 3.8 2.3
2 -4 7 6.2 3.4
-3 4 -7 337.87 13.1
-3 4 -7 339.57 17
-3 4 -7 317.97 16.2
3 -4 7 329.77 15.4
3 -4 7 337.57 14.5
-4 4 -7 46.8 5.9
-4 4 -7 63.49 9.3
4 -4 7 58.09 7.3
4 -4 7 59.39 8.6
-5 4 -7 38.2 7.7
-5 4 -7 29.2 4.4
5 -4 7 30.7 9.4
5 -4 7 39.1 6.6
-6 4 -7 29.7 4.8
-6 4 -7 38.6 7.8
6 -4 7 13.5 6.3
6 -4 7 35.3 10.9
-7 4 -7 -0.3 4.4
-7 4 -7 10.6 8.1
7 -4 7 2 6.6
7 -4 7 5.3 13.7
-8 4 -7 14.6 9.9
-8 4 -7 -3 5.1
8 -4 7 -22.4 17
8 3 -7 26 24.7
8 3 -7 -4.1 20.6
8 3 -7 -6.3 20.7
-8 -3 7 -1.7 9.4
-8 -3 7 9.8 7.9
7 3 -7 3.6 19
7 3 -7 -20 15.4
7 3 -7 15.4 16.6
-7 -3 7 3.6 7.8
-7 -3 7 -3.3 5.6
6 3 -7 23.5 15.4
6 3 -7 16 16.8
6 3 -7 3.8 13
-6 -3 7 20.5 5.1
-6 -3 7 25.3 8
5 3 -7 42.9 14
5 3 -7 45.3 11.5
5 3 -7 42.7 11.5
-5 -3 7 47.9 7.1
-5 -3 7 50.59 7.7
4 3 -7 6 7.8
4 3 -7 5.5 10
4 3 -7 0.7 7.5
-4 -3 7 13.9 4.4
-4 -3 7 14.5 3.5
3 3 -7 221.88 17.9
3 3 -7 220.28 11
3 3 -7 221.98 10.1
3 3 -7 207.08 15.4
3 3 -7 245.58 14.6
-3 -3 7 215.08 13.1
-3 -3 7 236.58 9.7
-3 -3 7 196.18 9.6
2 3 -7 66.59 7.8
2 3 -7 61.39 5.6
2 3 -7 62.29 6.8
2 3 -7 67.49 9.6
2 3 -7 67.09 12
-2 -3 7 64.29 5
-2 -3 7 63.99 5.7
-2 -3 7 74.49 6.8
1 3 -7 15.7 6.1
1 3 -7 20.7 4.2
1 3 -7 14.2 6.5
-1 -3 7 28.7 4.5
-1 -3 7 24.4 8.6
0 3 -7 8.8 5.3
0 -3 7 9 2.1
0 -3 7 8.8 3
-1 3 -7 16.9 5.4
1 -3 7 8 2.3
1 -3 7 11 3.2
-2 3 -7 111.29 11.6
-2 3 -7 81.49 6.3
2 -3 7 87.99 7
2 -3 7 96.69 5.8
-3 3 -7 475.45 19.9
-3 3 -7 438.96 19.2
-3 3 -7 438.56 15.7
3 -3 7 441.46 18.7
3 -3 7 468.35 17.5
-4 3 -7 49.1 8.9
-4 3 -7 50.79 5.3
4 -3 7 65.99 9.3
4 -3 7 55.09 7.3
-5 3 -7 30.5 6.6
-5 3 -7 27.7 4
5 -3 7 22.6 9.5
5 -3 7 35.4 5.7
-6 3 -7 62.59 7
-6 3 -7 81.99 11.8
6 -3 7 86.29 14.6
6 -3 7 73.79 9.8
-7 3 -7 26.4 9.4
-7 3 -7 10.2 4.5
7 -3 7 1.8 14.5
7 -3 7 10.2 6.7
-8 3 -7 32.3 10.3
8 -3 7 24.7 18.6
9 2 -7 14 23.9
9 2 -7 6.7 21.6
9 2 -7 34.7 28.2
-9 -2 7 1.2 8.3
-9 -2 7 -11.8 10.9
8 2 -7 12.5 18.6
8 2 -7 14.6 21.8
8 2 -7 6.1 16.7
-8 -2 7 -0.9 7
-8 -2 7 0.6 8.7
7 2 -7 42.5 18.9
7 2 -7 50.79 17.7
7 2 -7 22.8 15.2
-7 -2 7 35.1 8.9
-7 -2 7 18.2 5.4
6 2 -7 -6.5 9.8
6 2 -7 -5.2 11.1
6 2 -7 -15.9 13.1
-6 -2 7 5 4.1
-6 -2 7 -8.6 5.3
5 2 -7 -13 9.9
5 2 -7 12.5 7.7
5 2 -7 3.3 9.2
-5 -2 7 4.9 4.6
-5 -2 7 3.1 3.5
4 2 -7 20.3 7.2
4 2 -7 10.5 9.7
4 2 -7 18.3 3.5
4 2 -7 26.2 8.3
-4 -2 7 22.5 4.9
-4 -2 7 12.2 3.1
-4 -2 7 18.8 3.4
3 2 -7 -3.5 7.2
3 2 -7 2.1 5.3
3 2 -7 -0.6 3.1
3 2 -7 -4.2 5.4
-3 -2 7 -3.9 5.7
-3 -2 7 1 2.7
-3 -2 7 0.1 2.2
2 2 -7 18 4.2
2 2 -7 26.1 7.1
2 2 -7 23 3.3
2 2 -7 22.6 6.3
-2 -2 7 18.8 4.1
-2 -2 7 21.9 3.1
-2 -2 7 4.7 8.5
-2 -2 7 16.4 2.9
1 2 -7 272.47 11.5
1 2 -7 300.27 15.5
1 2 -7 294.17 15
-1 -2 7 295.87 11.5
-1 -2 7 298.97 15.6
-1 -2 7 285.07 10.5
0 2 -7 389.56 15.8
0 2 -7 357.96 14.2
0 2 -7 360.26 12.7
0 2 -7 375.56 17.2
0 -2 7 397.66 12.8
0 -2 7 395.86 14.2
0 -2 7 340.17 17.6
0 -2 7 382.36 16.3
-1 2 -7 126.29 10.9
-1 2 -7 113.49 5.9
1 -2 7 113.39 5.7
1 -2 7 114.69 6.9
-2 2 -7 -4.5 3.5
-2 2 -7 -1.2 2
-2 2 -7 7.4 6.7
-2 2 -7 -3.5 2.7
2 -2 7 -4.8 4
2 -2 7 -2.6 2.7
2 -2 7 0.9 2
-3 2 -7 424.96 18.3
-3 2 -7 407.06 13.8
-3 2 -7 418.76 17.9
-3 2 -7 432.06 14.4
3 -2 7 433.56 19
3 -2 7 420.26 16.3
-4 2 -7 -3.8 2.6
-4 2 -7 -6.7 5.2
4 -2 7 -3.5 7
4 -2 7 -0.7 4
-5 2 -7 9.5 3
-5 2 -7 5.9 5.7
5 -2 7 4.3 9.5
5 -2 7 9.1 4.9
-6 2 -7 38.1 8.3
-6 2 -7 17.5 3.7
6 -2 7 22.3 6.2
6 -2 7 37.6 12.7
-7 2 -7 7.5 8.3
7 -2 7 6.6 6
7 -2 7 13.7 17.8
-8 2 -7 -0.7 10.1
8 -2 7 18.2 21.2
9 1 -7 12.3 23.5
9 1 -7 26.2 21.7
9 1 -7 -7.3 18.6
-9 -1 7 -5.1 7.2
-9 -1 7 2.7 9.9
8 1 -7 -0.1 15.3
8 1 -7 26.1 19.3
8 1 -7 -17.8 16.9
-8 -1 7 6.5 8.6
-8 -1 7 3 6.4
7 1 -7 -0.6 15.1
7 1 -7 -8.6 13.1
7 1 -7 12 12.7
-7 -1 7 5.4 4.9
-7 -1 7 -5.5 6.4
6 1 -7 3.7 8.7
6 1 -7 16 10.7
6 1 -7 4 12.1
-6 -1 7 7.7 4.1
5 1 -7 7.6 6.9
5 1 -7 9.2 8.3
5 1 -7 9.6 10
-5 -1 7 10.3 4.2
-5 -1 7 2 3.4
4 1 -7 0.3 5.9
4 1 -7 -0.1 3
4 1 -7 -3.5 7.9
4 1 -7 9.1 6.5
-4 -1 7 5.9 3.4
-4 -1 7 -5.7 2.9
-4 -1 7 1 2.7
3 1 -7 211.98 9
3 1 -7 201.08 12.1
3 1 -7 196.38 13.1
3 1 -7 205.08 15.3
-3 -1 7 214.38 9.2
-3 -1 7 214.08 9
-3 -1 7 229.88 12.8
2 1 -7 98.89 9.4
2 1 -7 109.79 10.9
2 1 -7 108.89 6.4
2 1 -7 101.39 6.8
-2 -1 7 108.09 6.4
-2 -1 7 93.29 12.7
-2 -1 7 95.69 7.7
-2 -1 7 100.69 5.4
1 1 -7 349.47 16.6
1 1 -7 402.36 17.3
1 1 -7 358.06 12.4
1 1 -7 342.47 13.1
-1 -1 7 371.96 13.4
-1 -1 7 375.16 12.4
-1 -1 7 352.76 16.9
-1 -1 7 340.27 16.9
0 1 -7 1083.99 30
0 1 -7 1069.89 33.4
0 1 -7 1017.5 31.5
0 -1 7 1101.39 34.3
0 -1 7 1109.89 31.9
0 -1 7 932.31 29.6
0 -1 7 1037 35.3
-1 1 -7 1267.27 37.8
-1 1 -7 1235.48 40.1
-1 1 -7 1268.57 35.3
1 -1 7 1278.27 39.2
1 -1 7 1241.88 37.4
1 -1 7 1296.17 35.3
-2 1 -7 0.8 2.1
-2 1 -7 -2.9 3.6
-2 1 -7 3.1 5.3
-2 1 -7 0.4 3.6
2 -1 7 0.9 1.9
2 -1 7 -2.8 5.3
2 -1 7 -0.2 4.1
2 -1 7 -5.3 3.2
2 -1 7 0.6 3.3
-3 1 -7 109.09 5.4
-3 1 -7 120.69 11.2
-3 1 -7 123.79 7.4
-3 1 -7 111.09 9.3
-3 1 -7 121.19 6.2
3 -1 7 116.29 9.2
3 -1 7 111.79 8.1
3 -1 7 118.69 11.8
3 -1 7 102.49 10.3
-4 1 -7 -5.5 4.3
-4 1 -7 1.8 2.1
-4 1 -7 0.1 2.3
-4 1 -7 0.4 4
4 -1 7 3 7.3
4 -1 7 2 3.9
-5 1 -7 0.4 4.9
5 -1 7 12.3 9.9
5 -1 7 -3.1 4.6
-6 1 -7 148.59 11.9
-6 1 -7 126.39 15.3
6 -1 7 148.09 11.2
6 -1 7 128.09 20.2
6 -1 7 154.38 23.1
-7 1 -7 10.7 8.3
-7 1 -7 20.2 9.7
7 -1 7 28.3 15.4
7 -1 7 -8.6 10.6
7 -1 7 -0.6 16.5
-8 1 -7 5.7 10.5
8 -1 7 9.5 21.3
8 -1 7 -19.7 22.2
9 0 -7 1.7 22.3
9 0 -7 45.4 18.9
9 0 -7 1.6 20.2
-9 0 7 6.4 9.4
-9 0 7 12.8 7.6
8 0 -7 -32.1 15.7
8 0 -7 4.2 19.9
8 0 -7 -6.2 13.5
-8 0 7 12.1 6.4
-8 0 7 3.1 7.8
7 0 -7 5.1 12.6
7 0 -7 34.8 15.5
7 0 -7 33.7 11.1
-7 0 7 28 5.1
-7 0 7 31.9 6.9
6 0 -7 -7 9.2
6 0 -7 -3.5 8.1
6 0 -7 3.6 11.1
-6 0 7 2.5 3.7
-6 0 7 2.3 4.5
5 0 -7 18.6 7.6
5 0 -7 6.6 9.4
5 0 -7 2.2 6.9
-5 0 7 4.6 4
-5 0 7 8.8 3.3
4 0 -7 16.6 2.9
4 0 -7 19.6 6.8
4 0 -7 34.7 8.7
4 0 -7 23.8 6.5
-4 0 7 16.2 3.1
-4 0 7 23.3 3.6
3 0 -7 9.3 3
3 0 -7 10.9 5.2
3 0 -7 9.2 6.5
3 0 -7 9.2 4.4
-3 0 7 7.5 2.3
-3 0 7 9.7 5.5
-3 0 7 9.6 3
2 0 -7 61.19 5.8
2 0 -7 58.39 5.2
2 0 -7 59.49 7.7
2 0 -7 60.49 9.5
-2 0 7 63.19 6.8
-2 0 7 56.19 10.1
-2 0 7 65.99 5.3
-2 0 7 59.99 9
-2 0 7 64.59 4.5
1 0 -7 582.24 19.6
1 0 -7 601.04 22.7
1 0 -7 583.94 22.8
1 0 -7 623.34 18.5
1 0 -7 591.84 18.3
-1 0 7 575.44 23.1
-1 0 7 635.74 18.5
-1 0 7 609.34 19.8
-1 0 7 585.24 22.8
0 0 -7 22.3 6.2
0 0 -7 12.5 2.5
0 0 -7 10.8 3.3
0 0 -7 17.7 2.4
0 0 7 19.5 2.5
0 0 7 12.9 5.5
0 0 7 14.4 3.1
0 0 7 19.4 3.2
0 0 7 10.7 5.3
0 0 7 14.7 3.3
-1 0 -7 8.2 5.5
-1 0 -7 9.5 4.6
-1 0 -7 3.9 2.1
1 0 7 4.2 2.9
1 0 7 5.1 1.8
1 0 7 10.2 5.9
1 0 7 10 3.9
1 0 7 8.2 2.8
-2 0 -7 48 7
-2 0 -7 52.49 6.7
-2 0 -7 57.69 4.1
2 0 7 62.49 6.6
2 0 7 52.89 8.5
2 0 7 62.09 3.8
2 0 7 51.29 6.2
2 0 7 55.59 8.9
-3 0 -7 0.7 5.3
-3 0 -7 2.7 4.4
3 0 7 8.5 3.8
3 0 7 12.1 6.3
-4 0 -7 23.9 5.3
-4 0 -7 21.5 6.4
4 0 7 21.5 4.9
4 0 7 18.6 8.5
-5 0 -7 24.4 6.2
-5 0 -7 29.4 7.5
5 0 7 27.9 11.6
5 0 7 30.3 6.1
-6 0 -7 55.79 8.5
6 0 7 34.4 6.5
6 0 7 38.7 15.2
6 0 7 30.5 12.5
-7 0 -7 5.3 10.2
-7 0 -7 6.4 9.6
7 0 7 16.4 19.4
7 0 7 10.4 16.5
-8 0 -7 16.1 11.6
-8 0 -7 13.7 12
8 0 7 16 22.2
8 0 7 5.1 22.3
9 -1 -7 -9.3 16
9 -1 -7 -22.6 19.8
9 -1 -7 22.1 19
-9 1 7 19 7.7
-9 1 7 20.6 9.7
8 -1 -7 2.9 16.4
8 -1 -7 4.6 14.9
8 -1 -7 -7.7 12.2
-8 1 7 -3.9 6.2
-8 1 7 2 7
7 -1 -7 -13.3 11.2
7 -1 -7 -1.6 9.6
7 -1 -7 3.6 13.3
-7 1 7 -4.2 4.5
-7 1 7 5.9 5.1
6 -1 -7 100.09 18
6 -1 -7 92.29 13.7
6 -1 -7 87.39 13.5
-6 1 7 75.89 7.6
-6 1 7 75.69 7.7
5 -1 -7 50.79 11.6
5 -1 -7 46.7 9.3
5 -1 -7 46.7 9.2
5 -1 -7 39.3 5.2
-5 1 7 54.19 6.1
-5 1 7 43.5 5.7
4 -1 -7 116.89 11.8
4 -1 -7 127.89 7.1
4 -1 -7 125.79 11.5
4 -1 -7 147.59 13.7
-4 1 7 140.49 7.5
-4 1 7 130.79 7.2
3 -1 -7 8.7 3.1
3 -1 -7 12.5 5.1
3 -1 -7 12.9 3.3
3 -1 -7 6.7 4.9
3 -1 -7 18.1 6.4
-3 1 7 9 2.4
-3 1 7 9.6 6.5
-3 1 7 16.9 3.1
-3 1 7 8.7 5.4
2 -1 -7 96.29 9.8
2 -1 -7 110.29 7.5
2 -1 -7 106.09 8.5
2 -1 -7 85.49 6.4
-2 1 7 95.09 8.4
-2 1 7 83.89 5.3
-2 1 7 82.59 8.9
-2 1 7 89.09 6.2
1 -1 -7 222.08 9.4
1 -1 -7 203.98 11.6
1 -1 -7 206.68 7.9
1 -1 -7 164.48 9.3
1 -1 -7 218.58 13.1
-1 1 7 201.08 9.4
-1 1 7 191.18 11.8
-1 1 7 189.38 13.8
-1 1 7 209.38 10.2
0 -1 -7 164.98 6.7
0 -1 -7 181.68 11.5
0 -1 -7 174.58 8.4
0 -1 -7 166.58 11.5
0 1 7 173.58 6.7
0 1 7 140.19 11.8
0 1 7 156.08 13.3
0 1 7 162.08 9
0 1 7 158.98 8.3
-1 -1 -7 1.1 4.5
-1 -1 -7 -1.3 3.8
-1 -1 -7 -4.9 3.3
-1 -1 -7 -1.9 2
1 1 7 3.6 3.2
1 1 7 0.4 3.6
1 1 7 5.1 4.3
1 1 7 1 1.7
-2 -1 -7 7 5.2
-2 -1 -7 8 4.6
2 1 7 10.1 3.9
2 1 7 -0.6 5.4
2 1 7 12.7 5.9
-3 -1 -7 -4.9 4.5
-3 -1 -7 -2.4 4
3 1 7 3 7
3 1 7 5.4 4.1
-4 -1 -7 0 5.2
-4 -1 -7 -3.4 5
4 1 7 5.6 8.4
4 1 7 -0.6 4.9
-5 -1 -7 131.59 13.3
-5 -1 -7 128.29 11.1
5 1 7 125.29 10.7
5 1 7 132.29 20.6
-6 -1 -7 20.5 8.2
-6 -1 -7 24.2 8.3
6 1 7 10.8 16.5
6 1 7 15.3 6.1
-7 -1 -7 70.19 11.7
-7 -1 -7 55.99 11.2
7 1 7 37.8 22.4
7 1 7 40.9 17.8
-8 -1 -7 12.9 11.6
-8 -1 -7 27.8 13.7
8 1 7 3.9 21.7
8 1 7 2.9 25.6
10 -2 -7 -13 22.8
10 -2 -7 -1.5 24.8
10 -2 -7 -12.8 20.4
-10 2 7 -8.8 8.6
-10 2 7 7.8 10.4
9 -2 -7 -6.2 20.1
9 -2 -7 15.8 15.7
9 -2 -7 21.9 19.4
-9 2 7 2.5 8.7
-9 2 7 9.4 7.3
8 -2 -7 7 17.1
8 -2 -7 20.1 16
8 -2 -7 18.2 12.3
-8 2 7 -4.7 5.7
-8 2 7 3.8 6.2
7 -2 -7 55.89 13.6
7 -2 -7 47.1 12.7
7 -2 -7 43.1 14.1
-7 2 7 30.8 5.5
-7 2 7 40.4 6.3
6 -2 -7 41.1 11.1
6 -2 -7 49.7 6.1
6 -2 -7 38.7 12.6
6 -2 -7 71.49 11.5
-6 2 7 58.49 7
-6 2 7 44.5 6.7
5 -2 -7 23 8.1
5 -2 -7 27.6 7.9
5 -2 -7 22.3 9.7
-5 2 7 23 4.1
-5 2 7 22.3 4
4 -2 -7 47.9 5.6
4 -2 -7 57.49 9.1
4 -2 -7 64.69 10.9
4 -2 -7 52.89 8.3
-4 2 7 50.19 5.4
-4 2 7 53.39 5.1
3 -2 -7 0.4 5.7
3 -2 -7 -3.4 4.9
3 -2 -7 -1 4.5
3 -2 -7 -3.5 2.6
-3 2 7 -0.1 6.7
-3 2 7 1.4 5.7
-3 2 7 4.1 2.7
-3 2 7 1.9 2.1
2 -2 -7 171.98 11
2 -2 -7 153.08 10.3
2 -2 -7 176.58 13.5
-2 2 7 186.58 11.6
-2 2 7 181.48 8.9
-2 2 7 184.68 7.8
-2 2 7 189.68 11.5
1 -2 -7 2.1 3.6
1 -2 -7 -0.5 4.6
1 -2 -7 1.6 2.2
1 -2 -7 1.8 6.8
-1 2 7 1.1 4.5
-1 2 7 5.3 2.2
-1 2 7 0.9 2.9
-1 2 7 -6.3 5.1
0 -2 -7 83.49 4.5
0 -2 -7 83.69 7.3
0 -2 -7 76.49 8.2
0 -2 -7 88.09 9.4
0 2 7 73.09 6.3
0 2 7 80.89 8.5
0 2 7 89.39 4.8
-1 -2 -7 53.89 7.1
-1 -2 -7 55.09 7.3
-1 -2 -7 42.5 7.8
1 2 7 63.19 8.8
1 2 7 54.29 6.1
-2 -2 -7 4.9 5.1
-2 -2 -7 6.3 4.1
2 2 7 9.9 4.3
2 2 7 2.7 6.4
-3 -2 -7 11.4 5.5
-3 -2 -7 12.4 5.5
3 2 7 8.5 5
3 2 7 3.3 8.6
-4 -2 -7 5.2 5.8
-4 -2 -7 -0.1 5.7
4 2 7 4.3 10.1
4 2 7 -0.1 5.2
-5 -2 -7 15.1 7.5
-5 -2 -7 10.7 7.6
5 2 7 18.4 13
5 2 7 11.7 6.3
-6 -2 -7 45 10.6
-6 -2 -7 42 10.4
6 2 7 31.7 17.5
-7 -2 -7 4.4 10.7
-7 -2 -7 8.5 11.3
7 2 7 -42.1 21.6
7 2 7 9.1 19.1
10 -3 -7 -7.5 22.7
10 -3 -7 10.1 24
-10 3 7 17.6 9.1
9 -3 -7 -21.7 17.4
9 -3 -7 13.9 15.4
9 -3 -7 -7.3 17.7
-9 3 7 7.2 7.5
8 -3 -7 -7.1 14
8 -3 -7 25.5 12.8
8 -3 -7 -24.1 14.3
-8 3 7 4.6 5.6
7 -3 -7 -11.1 11.2
7 -3 -7 12.7 12.5
7 -3 -7 -1.1 10.1
-7 3 7 -4.3 4.5
-7 3 7 11 4.4
6 -3 -7 -1.7 10.1
6 -3 -7 4.8 8.5
6 -3 -7 8.4 9.4
-6 3 7 2.7 3.8
-6 3 7 3.4 3.7
5 -3 -7 -2.6 6.6
5 -3 -7 7.9 7.8
5 -3 -7 5.4 9.1
-5 3 7 -0.3 3.5
-5 3 7 0.1 3.4
4 -3 -7 36.3 7.2
4 -3 -7 35.5 7.9
4 -3 -7 47 9.2
4 -3 -7 35.5 4.4
-4 3 7 38.9 5.4
-4 3 7 36.1 5.7
-4 3 7 58.89 9.7
3 -3 -7 38 8.6
3 -3 -7 25.5 6.3
3 -3 -7 40.1 7
-3 3 7 29.5 3.7
-3 3 7 33 7
-3 3 7 22.6 4
2 -3 -7 176.08 13.8
2 -3 -7 180.48 11.7
2 -3 -7 168.78 11.5
-2 3 7 161.98 9.2
-2 3 7 181.88 8.1
-2 3 7 174.78 11.4
1 -3 -7 31.1 5.5
1 -3 -7 29.8 7.3
1 -3 -7 24.9 5.2
1 -3 -7 30.7 3.9
-1 3 7 25.6 4.1
-1 3 7 32.7 4
-1 3 7 12 6.7
0 -3 -7 3.8 2.1
0 -3 -7 2.1 4.6
0 -3 -7 2.5 4.3
0 -3 -7 7.8 6
0 3 7 5.7 2.4
0 3 7 5.6 3.1
-1 -3 -7 67.79 9.5
-1 -3 -7 70.39 7.9
-1 -3 -7 60.59 8.9
1 3 7 73.49 10.6
1 3 7 76.49 7.3
-2 -3 -7 109.69 11.4
-2 -3 -7 103.79 9.4
-2 -3 -7 92.99 9.8
2 3 7 94.69 8.7
2 3 7 112.59 14
-3 -3 -7 53.09 8.5
-3 -3 -7 53.49 8.6
3 3 7 55.79 7.2
3 3 7 65.59 12.3
-4 -3 -7 25.6 7.9
-4 -3 -7 19.4 7.7
4 3 7 21.1 11.7
4 3 7 14 6.5
-5 -3 -7 11.5 8.5
-5 -3 -7 16.4 8.4
5 3 7 -14.8 15.2
5 3 7 12.7 7.2
-6 -3 -7 41.6 10.6
-6 -3 -7 34.6 10.8
6 3 7 3.7 20.3
-7 -3 -7 25.5 12.3
-7 -3 -7 7.1 11.1
7 3 7 2.6 21.6
7 3 7 -4.4 25.3
10 -4 -7 2.5 24.3
10 -4 -7 23.6 22.2
-10 4 7 20 9.4
9 -4 -7 0.7 17.5
9 -4 -7 -15.8 18.8
-9 4 7 -3.6 7.5
8 -4 -7 0 16.3
8 -4 -7 0.5 15.2
8 -4 -7 7.1 13.3
-8 4 7 -1.6 6.7
-8 4 7 -3.2 5.5
7 -4 -7 3.3 11.9
7 -4 -7 -1.3 12.9
7 -4 -7 -17.3 10.8
-7 4 7 -1.7 5.6
-7 4 7 -5.1 4.8
6 -4 -7 98.79 15.1
6 -4 -7 72.79 13.8
6 -4 -7 75.99 13.6
-6 4 7 87.39 8.6
-6 4 7 93.79 8.5
5 -4 -7 183.08 16.9
5 -4 -7 169.48 17
5 -4 -7 171.48 12.9
5 -4 -7 143.29 7.5
-5 4 7 162.08 9.3
-5 4 7 161.38 10
4 -4 -7 4.9 8.8
4 -4 -7 2.1 7
4 -4 -7 -2.9 2.7
-4 4 7 -3.1 3.5
-4 4 7 -0.5 3
3 -4 -7 23.2 6.5
3 -4 -7 18.9 8.5
3 -4 -7 17.5 6.4
-3 4 7 13.9 6.3
-3 4 7 13.3 3.9
-3 4 7 10.6 3.2
2 -4 -7 16.4 7.6
2 -4 -7 18.2 6
2 -4 -7 12.1 5.6
-2 4 7 16.1 3.1
-2 4 7 6 6.4
-2 4 7 14.8 3.8
1 -4 -7 11.4 7.3
1 -4 -7 5.9 3.2
1 -4 -7 5.5 4.8
-1 4 7 5.8 4
-1 4 7 6 2.8
-1 4 7 4.1 7.8
0 -4 -7 16.1 5.8
0 -4 -7 25.7 7.1
0 -4 -7 25.8 2.8
0 -4 -7 17.1 5.4
0 4 7 21.6 4.8
0 4 7 23.4 3.2
-1 -4 -7 59.79 10.3
-1 -4 -7 53.09 8.5
-1 -4 -7 52.09 7.4
1 4 7 54.99 7.5
1 4 7 52.29 9.3
-2 -4 -7 14.9 7.4
-2 -4 -7 22.1 6.5
-2 -4 -7 20.2 7
2 4 7 22.1 10
2 4 7 14.8 5.4
-3 -4 -7 22 6.6
-3 -4 -7 19.1 7.4
3 4 7 -9.5 10.7
3 4 7 22.1 6.5
-4 -4 -7 5.1 7.8
4 4 7 -2.8 15.5
4 4 7 -0.4 7.2
-5 -4 -7 0.6 9.5
-5 -4 -7 21.5 9.3
5 4 7 21.4 18
5 4 7 13.1 7.9
-6 -4 -7 -9.7 11.3
-6 -4 -7 4.4 10.1
6 4 7 20 23.1
9 -5 -7 13.7 18.2
9 -5 -7 16.8 19.3
-9 5 7 16.4 8
8 -5 -7 -21.5 14.7
8 -5 -7 -8 15.2
-8 5 7 0 7
-8 5 7 -6.3 6.2
7 -5 -7 -6 12.8
7 -5 -7 -10.1 13
-7 5 7 4.9 6
-7 5 7 -9.1 5.2
6 -5 -7 64.39 13.6
6 -5 -7 73.59 13.9
-6 5 7 89.59 9
-6 5 7 86.29 9.4
5 -5 -7 -6 8.5
5 -5 -7 2.8 9.8
-5 5 7 -0.4 3.9
-5 5 7 0.4 4.3
4 -5 -7 4.3 7.5
4 -5 -7 17.5 10.1
-4 5 7 5.5 3.5
-4 5 7 9.5 4.3
3 -5 -7 1.7 8.1
3 -5 -7 3.5 7
-3 5 7 1.6 3.3
-3 5 7 -1 4
2 -5 -7 85.89 11.3
2 -5 -7 56.99 7.6
2 -5 -7 76.09 13
-2 5 7 70.39 8.1
-2 5 7 74.69 6.2
-2 5 7 70.89 11.3
1 -5 -7 87.59 8.2
1 -5 -7 84.19 12.7
1 -5 -7 91.99 11.7
-1 5 7 95.29 6.6
-1 5 7 72.99 8.2
0 -5 -7 161.18 13.7
0 -5 -7 137.09 7.2
0 -5 -7 150.48 10.9
0 -5 -7 152.68 13.3
0 5 7 153.28 7.5
0 5 7 161.18 10.8
-1 -5 -7 50.29 8.3
-1 -5 -7 28.1 7.7
-1 -5 -7 25.7 8.1
1 5 7 45.3 11.3
1 5 7 43.3 6.8
-2 -5 -7 9.4 6.3
-2 -5 -7 14.1 8.8
-2 -5 -7 10 6.9
2 5 7 -14.3 10.3
2 5 7 7.7 6.2
-3 -5 -7 90.39 12.4
-3 -5 -7 72.49 11.2
3 5 7 74.49 9.4
3 5 7 45.2 16.3
-4 -5 -7 -0.2 9.4
-4 -5 -7 22.7 9.6
4 5 7 -3.5 8
4 5 7 -16.7 18.8
-5 -5 -7 25.9 11.5
-5 -5 -7 -2.8 10.1
5 5 7 -14.6 21.9
-6 -5 -7 -12 13.7
-6 -5 -7 3.3 12
6 5 7 14.2 27.2
9 -6 -7 -33.5 18.7
-9 6 7 -0.1 8.7
8 -6 -7 1.4 15.3
8 -6 -7 -19.3 16.5
-8 6 7 8.2 7.2
-8 6 7 -14.8 7.1
7 -6 -7 -7.3 12.6
7 -6 -7 -22.5 12
-7 6 7 -4.5 5.9
-7 6 7 -2.3 6.2
6 -6 -7 43.3 13.3
6 -6 -7 10.9 11.9
-6 6 7 37.7 6.4
-6 6 7 47 7
5 -6 -7 6.3 9.7
5 -6 -7 -7.4 9.9
-5 6 7 7.8 4.6
-5 6 7 14.6 5.5
4 -6 -7 33.4 10
4 -6 -7 22.7 10.1
-4 6 7 28.8 4.9
-4 6 7 20.3 5.4
3 -6 -7 60.79 11.1
3 -6 -7 59.99 10.8
-3 6 7 76.79 8.8
-3 6 7 67.39 7.3
2 -6 -7 -3 6.9
2 -6 -7 -5.2 8.1
2 -6 -7 3.7 5.1
-2 6 7 -3.3 8.2
-2 6 7 4.7 5
-2 6 7 1.7 3.6
1 -6 -7 2.7 7
1 -6 -7 2.8 7.8
1 -6 -7 3.5 5.5
-1 6 7 2.5 5
-1 6 7 1.6 3.6
0 -6 -7 12.3 7.9
0 -6 -7 15.8 7.7
0 -6 -7 17.6 6.5
0 6 7 12.7 5.9
0 6 7 4.3 3.7
-1 -6 -7 4.8 9.2
-1 -6 -7 7.4 6.2
-1 -6 -7 -4 7.6
1 6 7 2.9 6
1 6 7 9.8 11.4
-2 -6 -7 -1.4 10.6
-2 -6 -7 8.6 7.3
-2 -6 -7 5.4 8.4
2 6 7 4.9 13.3
2 6 7 2.8 6.9
-3 -6 -7 13.7 9.1
-3 -6 -7 5.8 9.8
3 6 7 14 8.8
3 6 7 56.99 19.9
-4 -6 -7 20 11.2
-4 -6 -7 3.5 10
4 6 7 11.5 9.6
4 6 7 36 22.4
-5 -6 -7 13.1 12
-5 -6 -7 35.7 13.2
5 6 7 5.7 27.6
9 -7 -7 -20.3 19.4
-9 7 7 18.7 9.7
8 -7 -7 -18 16.1
8 -7 -7 -9.5 17
-8 7 7 -3.7 8.5
-8 7 7 9.9 8
7 -7 -7 15.9 15.4
7 -7 -7 22.4 16.3
-7 7 7 21.8 8
-7 7 7 23.4 7.8
6 -7 -7 96.79 16.6
6 -7 -7 40.7 13.4
-6 7 7 86.19 10.6
-6 7 7 65.09 9.6
5 -7 -7 3.9 10.5
5 -7 -7 6.3 11.6
-5 7 7 11.8 6.5
-5 7 7 9.1 6.3
4 -7 -7 2.5 9
4 -7 -7 6.2 10.3
-4 7 7 12.3 4.8
-4 7 7 11.8 6
3 -7 -7 53.19 10.1
3 -7 -7 29.7 9.4
-3 7 7 48.4 7.4
-3 7 7 40 5.5
2 -7 -7 2.5 8
2 -7 -7 -2.9 8.5
-2 7 7 2.2 4.3
-2 7 7 4.8 5.7
1 -7 -7 6.3 8.4
1 -7 -7 -3.8 8.9
1 -7 -7 3.3 5.2
-1 7 7 3 6.8
-1 7 7 -0.6 4.3
0 -7 -7 43.1 10.9
0 -7 -7 72.19 11.6
0 7 7 49.3 7.3
0 7 7 75.59 9.9
-1 -7 -7 123.29 20.1
-1 -7 -7 158.58 15.9
-1 -7 -7 153.68 12.9
1 7 7 187.78 27.7
1 7 7 147.19 15.9
-2 -7 -7 16.8 12.8
-2 -7 -7 57.59 11.8
-2 -7 -7 41.2 10.3
2 7 7 45.7 18.3
2 7 7 31.4 10.1
-3 -7 -7 13.3 9.7
-3 -7 -7 12.9 11.6
3 7 7 51.39 21.8
3 7 7 -2.3 10.3
-4 -7 -7 17.7 12.9
-4 -7 -7 3.2 11.3
4 7 7 -17 25.9
8 -8 -7 -15.9 16.2
8 -8 -7 -17.4 18.7
-8 8 7 12.4 8.8
-8 8 7 -6.1 9.4
7 -8 -7 17.3 16.1
7 -8 -7 -24 14.1
-7 8 7 -4.1 8.5
-7 8 7 5 8.1
6 -8 -7 3.9 15.3
-6 8 7 -0.4 8
-6 8 7 -7.1 6.4
5 -8 -7 -7.4 13.5
5 -8 -7 11 12.7
-5 8 7 -0.9 7.1
-5 8 7 14.7 6.4
4 -8 -7 16.9 11.7
4 -8 -7 35.6 11.7
-4 8 7 1 7
-4 8 7 0.3 6.3
3 -8 -7 4.7 9.5
3 -8 -7 41.6 11.9
-3 8 7 9.7 5.5
-3 8 7 13.1 7.5
2 -8 -7 16.8 11.5
2 -8 -7 7.5 10.3
-2 8 7 -0.3 5.4
-2 8 7 9.8 7.1
1 -8 -7 12.4 10.5
1 -8 -7 24.7 6.6
1 -8 -7 34.6 11
-1 8 7 16.7 8.1
0 -8 -7 114.89 16.6
0 -8 -7 62.69 13
0 -8 -7 79.49 11
0 8 7 95.19 19.4
0 8 7 72.39 11.1
-1 -8 -7 134.89 17.7
-1 -8 -7 132.89 13.7
1 8 7 111.79 17
1 8 7 205.78 33.8
-2 -8 -7 4.6 10
-2 -8 -7 45.1 15.8
-2 -8 -7 21.5 12.8
2 8 7 -2.4 11.2
2 8 7 7.9 21.8
-3 -8 -7 20.3 13.8
-3 -8 -7 10.6 11.7
3 8 7 -6.4 11.9
3 8 7 23 26.9
7 -9 -7 24.8 15.5
7 -9 -7 -3.3 18.4
-7 9 7 5.7 8.8
-7 9 7 32.4 10.6
6 -9 -7 -8.8 15.7
6 -9 -7 -10.2 14.2
-6 9 7 4.5 9.2
-6 9 7 9.5 8.5
5 -9 -7 -10.8 14.1
5 -9 -7 -1.7 13.6
-5 9 7 8.6 8.5
-5 9 7 -10.3 7
4 -9 -7 9.7 12.3
4 -9 -7 14.5 12.6
-4 9 7 2.8 8.4
-4 9 7 6.6 7.1
3 -9 -7 47.8 12.5
3 -9 -7 2.9 13
-3 9 7 22.5 7.9
-3 9 7 8.8 9.4
2 -9 -7 4.9 12.4
2 -9 -7 21.1 13.1
-2 9 7 4.5 9.1
-2 9 7 4.2 6.4
1 -9 -7 60.79 13.3
1 -9 -7 44.6 13.4
-1 9 7 28.2 10.4
-1 9 7 33.5 5.9
0 -9 -7 29 14
0 -9 -7 15.7 11.8
0 9 7 10.7 19.8
-1 -9 -7 9 16.2
-1 -9 -7 24.7 13
-1 -9 -7 -6.9 10.4
1 9 7 -24.1 23.3
1 9 7 -2.8 11.4
-2 -9 -7 2.4 14.7
-2 -9 -7 -11.8 11.3
-2 -9 -7 31.1 19.1
2 9 7 19.1 29.1
2 9 7 -4 13.4
6 -10 -7 34.9 16
6 -10 -7 -1 17.6
-6 10 7 -3.4 8.9
-6 10 7 0.2 10.8
5 -10 -7 -29.8 14.7
5 -10 -7 33.1 14.8
-5 10 7 10.7 9
-5 10 7 -1.3 10.4
4 -10 -7 3.8 14.1
4 -10 -7 34.6 14.3
-4 10 7 15.3 10.2
-4 10 7 4.7 8.8
3 -10 -7 12.2 13.9
3 -10 -7 -2.4 14.3
-3 10 7 9.9 8.1
-3 10 7 4.7 10.5
2 -10 -7 32.7 14.9
2 -10 -7 54.39 14.6
-2 10 7 21 7.7
-2 10 7 19 10.6
1 -10 -7 6.3 15.3
1 -10 -7 7.5 13.5
-1 10 7 -0.8 10.8
0 -10 -7 24.5 15.7
0 -10 -7 18.5 15.3
0 10 7 -17.2 11.8
0 10 7 -6.8 24.7
1 11 -8 11.7 11.8
1 11 -8 43.3 14.7
1 11 -8 8.4 23.5
-1 -11 8 -18.5 15.9
0 11 -8 5.7 19.2
0 11 -8 9.5 10.5
0 11 -8 6.2 13.4
0 -11 8 6.2 15.2
-1 11 -8 -2.1 9.5
-1 11 -8 9.8 13.8
1 -11 8 6 14.6
-2 11 -8 12.5 9.2
-2 11 -8 23.3 14.3
2 -11 8 -7.1 13.5
-3 11 -8 14 14.5
-3 11 -8 21.4 8.4
3 -11 8 -9.5 13.5
-4 11 -8 76.19 17
-4 11 -8 71.59 10.3
4 -11 8 75.59 15.1
-5 11 -8 -18.3 14.4
-5 11 -8 -12 9.3
5 -11 8 -7.8 13.8
3 10 -8 -2.9 27.5
3 10 -8 -4.5 12.4
3 10 -8 1.2 21.8
3 10 -8 37 44.9
-3 -10 8 -2.4 8.3
2 10 -8 16.6 12.3
2 10 -8 11.8 19.1
2 10 -8 -9.5 35.7
2 10 -8 -15.3 24
2 10 -8 -17.9 12
-2 -10 8 -19.9 14.8
-2 -10 8 -1.3 7.4
1 10 -8 -10 21.1
1 10 -8 0.5 11.7
1 10 -8 24.6 26.9
1 10 -8 22.8 16.2
1 10 -8 -3.5 10.2
-1 -10 8 1.2 12.6
0 10 -8 -20.8 14
0 10 -8 -6.1 9.4
0 10 -8 0.2 18.4
0 10 -8 -2.5 11.5
0 -10 8 7.1 11.1
0 -10 8 15.3 11.8
-1 10 -8 22.5 12.1
-1 10 -8 21.9 12.5
-1 10 -8 10.9 16
-1 10 -8 30.7 9.5
1 -10 8 7.4 10.4
1 -10 8 13.6 11.5
-2 10 -8 -0.7 8.3
-2 10 -8 -2 12
2 -10 8 -7 9.8
2 -10 8 -2.6 12.2
-3 10 -8 28.6 7.9
-3 10 -8 53.59 13.7
3 -10 8 40.7 11.5
3 -10 8 1.3 10.5
-4 10 -8 -7.1 12.5
-4 10 -8 8.2 7.6
4 -10 8 -3.2 11.2
4 -10 8 -16.5 10.7
-5 10 -8 30.9 12
-5 10 -8 10.4 8.1
5 -10 8 29.7 14.8
5 -10 8 10.3 11.5
-6 10 -8 39.9 12.9
-6 10 -8 28.4 8.9
6 -10 8 19.2 12.5
4 9 -8 3.9 23.5
4 9 -8 -1.3 11.6
4 9 -8 12.5 41.7
4 9 -8 19.8 26.6
-4 -9 8 12.4 7.8
3 9 -8 19.5 10.7
3 9 -8 -1.7 24.8
3 9 -8 11 10.9
3 9 -8 -7.4 35.3
3 9 -8 -0.3 21.1
-3 -9 8 -0.4 6.4
-3 -9 8 9.6 12.8
2 9 -8 -18 15.9
2 9 -8 -3 30.6
2 9 -8 2.5 9.4
2 9 -8 -9.8 19.4
2 9 -8 7.9 11
-2 -9 8 -0.1 11.9
-2 -9 8 -1.9 6.1
1 9 -8 191.28 26.9
1 9 -8 164.78 16.5
1 9 -8 165.18 18.6
1 9 -8 106.49 22
1 9 -8 167.98 26.2
-1 -9 8 149.69 12.5
-1 -9 8 139.29 18.2
0 9 -8 41.1 15.4
0 9 -8 61.79 12.2
0 9 -8 69.49 13.7
0 9 -8 73.19 9.9
0 -9 8 53.99 10.7
0 -9 8 43.2 9.5
0 -9 8 60.09 8.5
-1 9 -8 13.5 7.7
-1 9 -8 -14.5 13
1 -9 8 2.5 9.7
1 -9 8 -0.7 8.2
-2 9 -8 -17.4 12.6
-2 9 -8 22.9 7.4
2 -9 8 12.6 8.6
2 -9 8 13.7 9.6
-3 9 -8 49.1 8.8
3 -9 8 24.1 8.9
3 -9 8 43 11
-4 9 -8 14.9 8.2
-4 9 -8 17.2 7.1
4 -9 8 12.7 9.4
4 -9 8 27.1 10.5
-5 9 -8 24.6 7.8
5 -9 8 33.7 11
5 -9 8 10 11.3
-6 9 -8 2.3 10.4
6 -9 8 -28.4 13.7
6 -9 8 -3.6 10.3
-7 9 -8 8.6 8.8
-7 9 -8 0.1 10.1
7 -9 8 -0.7 16.5
7 -9 8 7.5 11.5
5 8 -8 11.7 13.1
5 8 -8 31 36.3
5 8 -8 -8.8 28
5 8 -8 36.5 23.2
-5 -8 8 -20 10.4
-5 -8 8 4.1 7.6
4 8 -8 11.3 22.6
4 8 -8 45.4 32.6
4 8 -8 24.9 13
4 8 -8 5.8 20.8
-4 -8 8 -2.5 6.7
3 8 -8 -4.3 8.7
3 8 -8 -31.5 27.8
3 8 -8 28.1 20.1
3 8 -8 18.6 11.4
3 8 -8 4.5 16
-3 -8 8 13.1 9.4
-3 -8 8 4.9 6.6
2 8 -8 36.1 22.4
2 8 -8 34.3 14.4
2 8 -8 19.2 8.4
2 8 -8 34.9 10.3
2 8 -8 34.8 17.4
-2 -8 8 19.6 9
-2 -8 8 19.8 6.1
1 8 -8 334.07 19.8
1 8 -8 297.67 26.6
1 8 -8 378.46 26.2
1 8 -8 320.87 31.4
-1 -8 8 325.27 15.4
-1 -8 8 328.17 18.8
0 8 -8 5.9 10.1
0 8 -8 25.7 7.6
0 8 -8 0.5 11.9
0 -8 8 17.5 7.2
0 -8 8 18.1 5.7
0 -8 8 -1.7 7.6
-1 8 -8 -10.9 11.1
-1 8 -8 -2.1 6.3
1 -8 8 0.9 6.4
1 -8 8 0.5 4.8
1 -8 8 -14.6 7
-2 8 -8 -0.9 6.2
-2 8 -8 -13.9 11
2 -8 8 -4 7.3
2 -8 8 -0.3 6.7
-3 8 -8 23.2 7.1
-3 8 -8 3.1 11.3
3 -8 8 14.2 8
3 -8 8 16.2 7.6
-4 8 -8 97.89 14.3
-4 8 -8 75.49 9
4 -8 8 92.59 13.6
4 -8 8 68.39 11.3
-5 8 -8 27.3 7.4
-5 8 -8 25.9 6.6
5 -8 8 27.7 8.7
5 -8 8 20.6 10.5
-6 8 -8 3.5 6.4
6 -8 8 7.9 12.2
6 -8 8 14 9.4
-7 8 -8 0 7.3
7 -8 8 -25.6 15.4
7 -8 8 -8.3 10.1
6 7 -8 -26.6 33
6 7 -8 17.8 25.4
-6 -7 8 21 11.3
-6 -7 8 -8.1 11.2
5 7 -8 4.4 19.7
5 7 -8 47.8 23.8
5 7 -8 14.2 28.7
-5 -7 8 -3.6 7.4
-5 -7 8 -10.4 9.1
4 7 -8 -3.8 15.9
4 7 -8 6.1 20.6
4 7 -8 27.8 7.8
4 7 -8 48 25.9
-4 -7 8 20.6 8.4
-4 -7 8 15.9 8.5
-4 -7 8 21.5 6.3
3 7 -8 23.5 8
3 7 -8 44.4 18.4
3 7 -8 27.8 20.5
3 7 -8 19.1 14.6
-3 -7 8 30.3 8.2
-3 -7 8 35.7 6.1
2 7 -8 91.29 19.4
2 7 -8 95.19 14
2 7 -8 84.39 16.5
-2 -7 8 78.79 12
-2 -7 8 71.99 8.3
1 7 -8 109.79 14.1
1 7 -8 95.59 12.6
1 7 -8 103.79 18.5
1 7 -8 106.89 16.7
-1 -7 8 105.59 11
-1 -7 8 87.79 8.7
0 7 -8 4 6
0 7 -8 6.5 9.9
0 7 -8 -7.6 8.5
0 7 -8 -5.1 7.8
0 -7 8 -4.5 5.4
0 -7 8 -6 5.6
0 -7 8 5.8 4.2
-1 7 -8 46.1 6.4
-1 7 -8 14.6 7.9
-1 7 -8 38.1 11.1
1 -7 8 38.3 6
1 -7 8 28.3 6.8
1 -7 8 34.3 5.3
-2 7 -8 88.49 15
-2 7 -8 128.59 15.4
-2 7 -8 116.19 10.1
2 -7 8 126.29 10.1
2 -7 8 121.69 11.7
2 -7 8 118.99 8.9
-3 7 -8 100.09 10.3
-3 7 -8 95.89 13
3 -7 8 85.59 11.1
3 -7 8 64.69 9
-4 7 -8 18.1 5.5
-4 7 -8 5.7 9.1
4 -7 8 18.4 7.7
4 -7 8 5.2 8.1
-5 7 -8 80.59 10.6
-5 7 -8 73.99 10.6
5 -7 8 64.39 10.6
5 -7 8 44.3 10.9
-6 7 -8 -4.4 5.5
-6 7 -8 14 7.2
6 -7 8 17.5 11.6
6 -7 8 -0.9 7.8
-7 7 -8 10.1 8.1
-7 7 -8 6.2 6.6
7 -7 8 6.7 10.1
7 -7 8 19.1 15.9
-8 7 -8 17.9 7.4
8 -7 8 -7.3 17.8
8 -7 8 -3.1 11.3
7 6 -8 41.6 30.8
7 6 -8 16.6 32.2
7 6 -8 -13 25.7
-7 -6 8 8 11.9
6 6 -8 12.3 20.6
6 6 -8 25.7 24.3
6 6 -8 22.8 28.2
-6 -6 8 7.5 7.3
-6 -6 8 -2.4 9.4
5 6 -8 28 19.8
5 6 -8 -10.6 26.1
5 6 -8 10.1 16
-5 -6 8 -3.7 5.7
-5 -6 8 5.6 7.9
4 6 -8 -6.7 6.7
4 6 -8 0.8 13.2
4 6 -8 -13.8 15.8
4 6 -8 -19.7 19.8
-4 -6 8 9.8 5
-4 -6 8 0.5 6.8
-4 -6 8 10.9 7.2
3 6 -8 61.39 17.7
3 6 -8 47.4 12.2
3 6 -8 54.19 15.7
-3 -6 8 51.59 7.7
-3 -6 8 67.19 7.5
2 6 -8 37 10.3
2 6 -8 66.89 14.8
2 6 -8 50.79 12.9
-2 -6 8 48.3 6.9
-2 -6 8 49.99 6.1
1 6 -8 16 10.8
1 6 -8 0.5 6
1 6 -8 12 7.2
1 6 -8 19.6 10.1
-1 -6 8 5.7 5.1
-1 -6 8 14 4.4
0 6 -8 14.2 9.2
0 6 -8 -9.3 5.6
0 6 -8 -3.6 5.1
0 -6 8 -0.6 4.7
0 -6 8 0.8 4.3
0 -6 8 2.6 3.6
-1 6 -8 17.6 8.8
-1 6 -8 15.7 5.3
1 -6 8 22.4 4.3
1 -6 8 15.8 5.3
-2 6 -8 -6 6.6
-2 6 -8 -1.9 4.2
-2 6 -8 14.1 9
2 -6 8 -1.1 4.9
2 -6 8 3.1 3.6
2 -6 8 2.5 4.9
-3 6 -8 53.59 9.6
-3 6 -8 72.09 11.5
-3 6 -8 58.49 8.1
3 -6 8 55.79 7.8
3 -6 8 48.1 7.2
-4 6 -8 34.7 5.5
-4 6 -8 25.7 8.9
4 -6 8 17.3 7.5
4 -6 8 33.3 7.2
-5 6 -8 48.4 6
-5 6 -8 61.79 8.7
5 -6 8 55.89 11
5 -6 8 58.39 8.8
-6 6 -8 24.5 6.1
6 -6 8 44.7 9.3
6 -6 8 21.9 12.2
-7 6 -8 1.4 8
-7 6 -8 -4.7 6.2
7 -6 8 -29.6 14
7 -6 8 -5.6 8.6
-8 6 -8 17.8 9.1
-8 6 -8 1.4 6.5
8 -6 8 -2.3 17.4
8 -6 8 6 10
7 5 -8 -13 25.1
7 5 -8 2.5 22.4
7 5 -8 1.2 27.8
-7 -5 8 -2.5 7.3
-7 -5 8 -10.7 9.6
6 5 -8 16.2 23
6 5 -8 9.7 20.5
6 5 -8 19.5 20.2
-6 -5 8 15 9.2
-6 -5 8 17.2 6.4
5 5 -8 -0.4 13.6
5 5 -8 -19.2 15.9
5 5 -8 -5.7 19.4
-5 -5 8 10 7.6
-5 -5 8 2 5
4 5 -8 102.39 18.6
4 5 -8 89.39 16.1
4 5 -8 75.59 14.1
-4 -5 8 81.39 9.6
-4 -5 8 78.89 8.1
-4 -5 8 74.69 9.6
3 5 -8 58.39 11
3 5 -8 69.79 15.6
3 5 -8 42.6 12.7
-3 -5 8 50.59 6.9
-3 -5 8 64.59 8.2
2 5 -8 20.2 7.7
2 5 -8 22.7 5.7
2 5 -8 42.7 11.9
2 5 -8 34.7 9.9
-2 -5 8 32.4 4.3
-2 -5 8 34.9 5.5
1 5 -8 148.09 15.5
1 5 -8 165.38 17.9
-1 -5 8 173.78 8.9
-1 -5 8 173.28 10.3
0 5 -8 8.7 7.5
0 -5 8 1.2 2.8
0 -5 8 -2.4 3.9
-1 5 -8 86.59 12.3
-1 5 -8 58.19 8
1 -5 8 65.19 6.1
1 -5 8 57.89 7.6
-2 5 -8 -3.5 4
-2 5 -8 24.8 8.9
2 -5 8 -3.7 3.8
2 -5 8 4 2.9
-3 5 -8 59.89 10.9
-3 5 -8 24.2 7.6
-3 5 -8 58.69 7.3
3 -5 8 41.9 6.3
3 -5 8 37.2 6.7
-4 5 -8 6.9 7.1
-4 5 -8 9.2 4.1
4 -5 8 -3 4.7
4 -5 8 11.3 7.3
-5 5 -8 22.7 4.6
-5 5 -8 26.8 7.5
5 -5 8 34.1 6.7
5 -5 8 16.9 9.1
-6 5 -8 -6.2 4.3
-6 5 -8 11.2 7.6
6 -5 8 3.6 10.9
6 -5 8 -2.1 6.5
-7 5 -8 0.2 5.1
-7 5 -8 -10.8 9.6
7 -5 8 9.1 8.3
7 -5 8 -10 14.6
-8 5 -8 90.69 13.3
-8 5 -8 62.89 8
8 -5 8 72.59 19.1
8 -5 8 70.69 10.6
8 4 -8 36.7 28.7
8 4 -8 -13.5 23.2
8 4 -8 15.1 25
-8 -4 8 -10.1 8
-8 -4 8 4.5 11
7 4 -8 14.1 19.4
7 4 -8 24.8 21.1
7 4 -8 24.9 23.2
-7 -4 8 6.5 7.1
-7 -4 8 1.4 8.9
6 4 -8 14.7 19.5
6 4 -8 10.2 16.4
6 4 -8 -24.3 15.3
-6 -4 8 2.5 5.2
-6 -4 8 19.2 7.9
5 4 -8 30.9 13.7
5 4 -8 21.6 16.3
5 4 -8 11.2 12.1
-5 -4 8 23.4 6.8
-5 -4 8 13 5
4 4 -8 -4.6 6
4 4 -8 6 9.7
4 4 -8 9.4 12.8
4 4 -8 15.2 9.3
-4 -4 8 -5.4 4.3
-4 -4 8 3 3.8
-4 -4 8 -4.4 5
3 4 -8 85.39 13.8
3 4 -8 70.19 13.9
3 4 -8 57.69 9.5
3 4 -8 52.59 8
-3 -4 8 55.19 8.4
-3 -4 8 55.99 7.6
-3 -4 8 76.59 6.5
2 4 -8 126.09 8.3
2 4 -8 141.79 10.9
2 4 -8 142.79 14.1
2 4 -8 139.19 15.7
-2 -4 8 131.59 8.5
-2 -4 8 129.89 7.9
1 4 -8 81.59 11.1
1 4 -8 68.19 12.3
1 4 -8 67.59 7.6
-1 -4 8 78.19 6.7
-1 -4 8 83.79 6.1
-1 -4 8 47 12.6
0 4 -8 31.1 7.5
0 -4 8 31.1 4.4
0 -4 8 31.5 4.7
-1 4 -8 209.98 15.3
1 -4 8 226.38 11.2
1 -4 8 213.68 9.4
-2 4 -8 16.2 4.2
-2 4 -8 28.9 8.8
2 -4 8 14 4.3
2 -4 8 16.3 3.3
-3 4 -8 2.9 3.5
-3 4 -8 8.3 8.1
-3 4 -8 5 6.3
3 -4 8 6.5 3.4
3 -4 8 3.4 3.9
3 -4 8 7.9 5.3
-4 4 -8 4 3.7
-4 4 -8 0.7 6.9
4 -4 8 0.8 6.8
4 -4 8 7.4 4.7
-5 4 -8 18.1 4.1
-5 4 -8 28.3 7.1
5 -4 8 4.5 8.9
5 -4 8 15 5.4
-6 4 -8 7.9 4.3
-6 4 -8 -6.7 7.4
6 -4 8 -2.2 6.1
6 -4 8 -1.1 10.8
-7 4 -8 33.5 10.4
-7 4 -8 10.7 4.9
7 -4 8 21.3 15.4
7 -4 8 21 7.5
-8 4 -8 10.5 10.8
8 -4 8 -8.8 17.8
8 3 -8 -0.5 25.1
8 3 -8 2.3 20.9
8 3 -8 16.2 20.7
-8 -3 8 -0.1 7.5
-8 -3 8 -5.8 9.9
7 3 -8 14.1 17.8
7 3 -8 35.4 20.8
7 3 -8 40.6 17.2
-7 -3 8 5.2 7.9
-7 -3 8 17.7 6.5
6 3 -8 37.9 14.2
6 3 -8 15.7 17.1
6 3 -8 53.09 14.8
-6 -3 8 34.9 7.5
-6 -3 8 34 5.8
5 3 -8 40.2 14.7
5 3 -8 19.7 10.9
5 3 -8 31.6 11.7
-5 -3 8 25.8 4.7
-5 -3 8 26.5 6.1
4 3 -8 -0.3 4.5
4 3 -8 -7.8 8
4 3 -8 8.4 10.9
4 3 -8 5.6 8.4
-4 -3 8 1.3 4
-4 -3 8 -0.2 3.3
3 3 -8 -3.2 4.6
3 3 -8 -3 4.7
3 3 -8 6.9 6.8
3 3 -8 -2 8.9
3 3 -8 -3.2 6.5
-3 -3 8 -5 6.1
-3 -3 8 0.6 3
-3 -3 8 2.2 3.5
2 3 -8 367.76 20.3
2 3 -8 369.06 19.8
-2 -3 8 359.46 14.1
-2 -3 8 375.86 13.6
1 3 -8 36.2 7.7
1 3 -8 26.4 7.3
-1 -3 8 20.6 4.1
-1 -3 8 28 3.5
-1 -3 8 20.3 10.6
0 3 -8 601.14 24.7
0 -3 8 609.84 19.3
0 -3 8 633.34 21.2
0 -3 8 581.84 24.9
-1 3 -8 31.7 7.6
1 -3 8 20.5 3
1 -3 8 14 3.7
-2 3 -8 -2.5 3.4
-2 3 -8 6.2 7.5
2 -3 8 7.3 2.7
2 -3 8 2 3.6
-3 3 -8 58.69 10.3
-3 3 -8 73.19 11.6
-3 3 -8 67.69 6.3
3 -3 8 75.79 5.8
3 -3 8 83.49 9.9
3 -3 8 64.19 7.8
-4 3 -8 16.1 7.1
-4 3 -8 15.8 3.6
4 -3 8 13.7 4.9
4 -3 8 16.3 8
-5 3 -8 9 5.9
-5 3 -8 4.7 3.6
5 -3 8 16.7 10.2
5 -3 8 3.1 5.3
-6 3 -8 77.29 7.7
-6 3 -8 83.99 13.4
6 -3 8 82.79 15.4
6 -3 8 79.69 8.9
-7 3 -8 -3.9 4.5
-7 3 -8 10.5 9.7
7 -3 8 -2.6 6.9
7 -3 8 2.4 17.2
-8 3 -8 65.29 13
8 -3 8 39.1 20.7
9 2 -8 2.5 27.6
9 2 -8 4.4 22.6
9 2 -8 30.9 24
-9 -2 8 1.8 8.7
-9 -2 8 -12.8 10.9
8 2 -8 10.2 19.1
8 2 -8 16.1 23.4
8 2 -8 7.5 17.6
-8 -2 8 -2.5 7.2
-8 -2 8 -2.2 9.1
7 2 -8 22.8 16.3
7 2 -8 34.3 14.5
7 2 -8 20.1 19.3
-7 -2 8 23.1 6.1
-7 -2 8 21.2 7.9
6 2 -8 -11.1 11.4
6 2 -8 -1.2 10.5
6 2 -8 10.3 14.5
-6 -2 8 3.7 5.8
-6 -2 8 -5.7 4.4
5 2 -8 -0.2 11.4
5 2 -8 8.9 8.8
5 2 -8 -4.5 9.2
-5 -2 8 0.4 3.6
-5 -2 8 4 4.5
4 2 -8 18.7 4.2
4 2 -8 17.9 10
4 2 -8 28.1 9.2
4 2 -8 22.2 8.1
-4 -2 8 12.8 3.8
-4 -2 8 11.1 3.3
3 2 -8 33.1 9.2
3 2 -8 21.1 4.4
3 2 -8 35 6.6
3 2 -8 30.2 7.6
-3 -2 8 19.5 3.7
-3 -2 8 22.5 6.3
-3 -2 8 21.8 3.5
2 2 -8 71.89 12.3
2 2 -8 68.59 9.6
-2 -2 8 69.49 5.3
-2 -2 8 78.39 6.2
1 2 -8 21.7 6.5
1 2 -8 16.6 5.6
-1 -2 8 17.6 3.6
-1 -2 8 20.2 3
-1 -2 8 32.7 8
0 2 -8 3.1 5
0 2 -8 6.4 5.5
0 -2 8 0.5 2.1
0 -2 8 1.6 6.1
0 -2 8 4.6 3
-1 2 -8 14.4 6.6
-1 2 -8 18.5 5.4
1 -2 8 15.7 3.6
1 -2 8 11.6 2.5
-2 2 -8 565.54 23.4
-2 2 -8 524.95 18.7
-2 2 -8 528.75 18.6
2 -2 8 562.44 17.3
2 -2 8 586.74 20.1
2 -2 8 506.65 19.3
2 -2 8 557.04 17.5
-3 2 -8 6.3 5.4
-3 2 -8 8.3 3.2
-3 2 -8 8.3 5.7
3 -2 8 0 3.9
3 -2 8 5.9 2.7
3 -2 8 0 6.3
-4 2 -8 63.69 6
-4 2 -8 75.19 10.3
4 -2 8 65.99 8.4
4 -2 8 70.79 10.9
-5 2 -8 96.89 10.7
-5 2 -8 90.39 7
5 -2 8 89.79 13.7
5 -2 8 85.49 9.7
-6 2 -8 6.8 3.5
-6 2 -8 11.6 9.8
6 -2 8 10.8 13
6 -2 8 -8.5 5.9
-7 2 -8 18.4 9.9
7 -2 8 6.8 6.4
7 -2 8 1.7 16.7
-8 2 -8 -1.5 11
8 -2 8 0.4 21
9 1 -8 -24.5 20.9
9 1 -8 -8.8 25.5
9 1 -8 6.7 19.5
-9 -1 8 6.5 7.8
-9 -1 8 -7.3 9.9
8 1 -8 18.8 21.1
8 1 -8 30.9 17.9
8 1 -8 1.4 16.1
-8 -1 8 9.9 6.8
-8 -1 8 0.7 8.4
7 1 -8 -1.2 13
7 1 -8 -14.3 16.8
7 1 -8 7.2 13.7
-7 -1 8 8.7 7.2
-7 -1 8 -0.3 5.1
6 1 -8 4.3 10.6
6 1 -8 10.2 13.6
6 1 -8 13.1 10
-6 -1 8 9.1 5.5
-6 -1 8 6.6 4.4
5 1 -8 16.1 8.6
5 1 -8 15.8 8.8
5 1 -8 11.7 10.9
-5 -1 8 17 3.9
4 1 -8 15.5 6.6
4 1 -8 2.1 8.5
4 1 -8 6.1 3.7
4 1 -8 15.1 7.5
-4 -1 8 10.9 3.2
-4 -1 8 11.3 3.5
3 1 -8 11.3 5
3 1 -8 12.6 3.9
3 1 -8 10 6.2
3 1 -8 7.2 7.7
-3 -1 8 6.7 5.9
-3 -1 8 10.2 2.8
-3 -1 8 3.2 3.1
2 1 -8 9 5.4
2 1 -8 3.1 3.8
2 1 -8 8.5 6.9
-2 -1 8 4 2.1
-2 -1 8 4.8 2.8
1 1 -8 351.66 17.6
1 1 -8 364.66 17.5
-1 -1 8 345.07 18.4
-1 -1 8 354.36 13.8
-1 -1 8 368.86 12.6
0 1 -8 20.7 6.8
0 1 -8 28.2 6.9
0 1 -8 19.9 3.3
0 -1 8 25.1 4.4
0 -1 8 24.6 3.7
0 -1 8 20.4 6.6
-1 1 -8 5.3 6
-1 1 -8 -2 5.2
-1 1 -8 -1.5 2.4
1 -1 8 -0.4 3
1 -1 8 3.1 2.1
1 -1 8 -10.6 6.2
-2 1 -8 10.2 2.7
-2 1 -8 9.6 4
-2 1 -8 2.4 4.5
-2 1 -8 7 6.7
2 -1 8 17 4
2 -1 8 14 4.2
2 -1 8 15.8 5.1
2 -1 8 14.5 2.6
2 -1 8 8 6.9
-3 1 -8 7.3 4.2
-3 1 -8 5.6 6.5
-3 1 -8 5.8 5.8
-3 1 -8 1.6 3.1
-3 1 -8 -1.1 2.7
3 -1 8 -11.3 8
3 -1 8 4.6 6
3 -1 8 2.4 4.2
3 -1 8 2.1 6.5
3 -1 8 3.2 2.7
-4 1 -8 0.6 2.8
-4 1 -8 -0.7 3.2
-4 1 -8 2.7 4.4
-4 1 -8 -2.7 5.6
4 -1 8 0.7 4.6
4 -1 8 -3.6 7.8
-5 1 -8 52.99 9.1
-5 1 -8 39.3 6.4
5 -1 8 40.3 6.9
5 -1 8 30.5 11.4
-6 1 -8 8.5 7.1
-6 1 -8 17.4 9.1
6 -1 8 9.1 6.5
6 -1 8 22.8 12.7
6 -1 8 28.4 14.1
-7 1 -8 9.1 10.9
-7 1 -8 7 8.5
7 -1 8 13.8 15.8
7 -1 8 9.4 17.6
-8 1 -8 0.4 11.2
8 -1 8 -12.9 21.8
9 0 -8 12.4 18.1
9 0 -8 9.8 20.5
9 0 -8 22 23.8
-9 0 8 -2.8 9.5
-9 0 8 4.1 7.5
8 0 -8 -0.1 18.3
8 0 -8 16.4 16.1
8 0 -8 20.8 15
-8 0 8 8 6.6
-8 0 8 2.5 7.4
7 0 -8 3 11.6
7 0 -8 6.7 11.2
7 0 -8 2.5 16.2
-7 0 8 -5 5.7
-7 0 8 4.1 4.9
6 0 -8 127.89 18.6
6 0 -8 132.99 17.9
6 0 -8 96.09 15.7
-6 0 8 121.09 9.7
-6 0 8 122.69 9.4
5 0 -8 69.89 6.3
5 0 -8 65.29 13
5 0 -8 71.59 11.7
5 0 -8 67.59 11.1
-5 0 8 72.69 7
-5 0 8 69.99 7
4 0 -8 56.99 6.6
4 0 -8 77.49 11.1
4 0 -8 67.39 10.6
4 0 -8 77.29 14.1
-4 0 8 67.69 6.4
-4 0 8 60.69 6.2
3 0 -8 129.29 10.1
3 0 -8 113.69 8.1
3 0 -8 139.09 11.2
3 0 -8 125.79 13.2
-3 0 8 127.39 7.7
-3 0 8 127.99 7
-3 0 8 107.39 10.7
2 0 -8 18.3 5.8
2 0 -8 17.4 7.1
2 0 -8 25.7 4.1
-2 0 8 23.3 4.7
-2 0 8 23.3 3.2
-2 0 8 22.7 3.6
1 0 -8 782.62 29
1 0 -8 804.12 29.3
-1 0 8 804.32 24.1
-1 0 8 834.62 26
0 0 -8 66.99 9.8
0 0 -8 69.99 5
0 0 -8 66.19 5
0 0 -8 75.59 10.9
0 0 8 66.39 5.8
0 0 8 66.39 6.1
0 0 8 56.89 9.4
0 0 8 63.19 4.7
0 0 8 66.39 5.9
-1 0 -8 28.6 3.1
-1 0 -8 25.6 7.4
-1 0 -8 33.1 6.5
1 0 8 35.1 4.7
1 0 8 31.2 3.9
1 0 8 24.1 3.9
1 0 8 39.2 6.8
1 0 8 13.5 9.1
-2 0 -8 25.8 6.4
-2 0 -8 32.9 4.3
-2 0 -8 44.8 6.4
2 0 8 36.6 5.4
2 0 8 32.8 5
2 0 8 27 6.9
2 0 8 33.7 3.9
-3 0 -8 -8.5 4.2
-3 0 -8 1.3 6.1
3 0 8 3.6 6.7
3 0 8 8.5 4.4
-4 0 -8 9.4 5.3
-4 0 -8 7.6 5.6
4 0 8 5.5 9.3
4 0 8 6.5 5.4
-5 0 -8 56.09 9.4
-5 0 -8 66.89 12.2
5 0 8 59.19 8.1
5 0 8 69.69 14.7
-6 0 -8 10.9 9.1
-6 0 -8 10.2 7.4
6 0 8 2.8 15.5
6 0 8 15.6 6.8
-7 0 -8 -4.3 10.7
-7 0 -8 21.8 11.1
7 0 8 -10.5 16.9
7 0 8 -6.2 18.7
-8 0 -8 9.4 11.5
-8 0 -8 -7.8 12.3
8 0 8 19.2 22.2
8 0 8 -36.4 22.9
9 -1 -8 22.8 17.4
9 -1 -8 3.2 21.6
-9 1 8 -3.3 8.7
-9 1 8 11.8 7.8
8 -1 -8 27.2 15
8 -1 -8 5.5 15.5
8 -1 -8 20.8 19
-8 1 8 6.3 6.3
-8 1 8 17.3 8.2
7 -1 -8 -1.9 12.1
7 -1 -8 -5.7 10.6
7 -1 -8 5.3 16.2
-7 1 8 3.6 5.1
6 -1 -8 38.3 11.4
6 -1 -8 59.79 13.8
6 -1 -8 45.7 10.7
6 -1 -8 33.2 5.1
-6 1 8 33.1 5.2
5 -1 -8 427.06 25.6
5 -1 -8 437.06 23
5 -1 -8 408.86 21.9
-5 1 8 443.86 16.7
-5 1 8 440.56 16.2
4 -1 -8 24 8.2
4 -1 -8 22.9 7.2
4 -1 -8 28.5 9.5
-4 1 8 20.3 3.7
-4 1 8 11.7 3.8
3 -1 -8 46.7 9.2
3 -1 -8 48.7 8.9
3 -1 -8 48.6 8.5
-3 1 8 50.59 4.9
-3 1 8 47.2 5.6
-3 1 8 35 7
2 -1 -8 272.87 12.6
2 -1 -8 253.27 14.3
2 -1 -8 267.77 15.9
-2 1 8 269.57 13.1
-2 1 8 267.37 11.7
-2 1 8 270.67 10.6
1 -1 -8 1206.48 35.1
1 -1 -8 1193.58 39.9
1 -1 -8 1304.97 36.5
1 -1 -8 1173.78 40.5
-1 1 8 1265.47 37.4
-1 1 8 1290.87 35.4
-1 1 8 1204.78 37.3
0 -1 -8 42.5 8.6
0 -1 -8 32.8 5.7
0 -1 -8 34.5 4.3
0 -1 -8 53.29 9.7
0 1 8 40.6 5.5
0 1 8 39.5 6.8
0 1 8 45.1 4.1
-1 -1 -8 4.9 4.2
-1 -1 -8 4.8 2.5
-1 -1 -8 3.4 5.3
-1 -1 -8 6.5 6.1
1 1 8 1.4 4.2
1 1 8 1.9 2.2
1 1 8 2.6 3.5
1 1 8 -6.2 4.8
-2 -1 -8 285.87 15.2
-2 -1 -8 286.77 14
2 1 8 299.47 16.8
2 1 8 279.57 13.3
-3 -1 -8 171.38 11.6
-3 -1 -8 172.08 11.3
3 1 8 173.98 16.2
3 1 8 186.28 11.1
-4 -1 -8 2.3 5.9
-4 -1 -8 8.4 6
4 1 8 3.6 9.2
4 1 8 3.7 5.7
-5 -1 -8 12.8 8.1
-5 -1 -8 12.1 6.8
5 1 8 0.6 6.2
5 1 8 -10.7 11.8
-6 -1 -8 23.9 10.1
6 1 8 4.8 17.3
6 1 8 12.5 6.9
-7 -1 -8 28.3 11.3
-7 -1 -8 49.2 11.8
7 1 8 38.4 20
9 -2 -8 -13 17.4
9 -2 -8 -11.6 20.1
9 -2 -8 39.1 19.7
-9 2 8 19.3 7.9
8 -2 -8 -5.1 16
8 -2 -8 3.6 13.3
8 -2 -8 4.1 15.5
-8 2 8 -0.4 6
7 -2 -8 -1.4 13.5
7 -2 -8 -12.8 10.6
7 -2 -8 0.5 11.7
-7 2 8 0.6 5.1
6 -2 -8 3.6 8.7
6 -2 -8 6.6 10.8
6 -2 -8 7.9 9.7
-6 2 8 -1.1 4.1
-6 2 8 8.7 4.6
5 -2 -8 78.59 13.5
5 -2 -8 85.29 14.7
5 -2 -8 79.59 11.4
-5 2 8 69.49 7.3
-5 2 8 71.99 7
4 -2 -8 90.59 14
4 -2 -8 64.69 10.7
4 -2 -8 70.59 11
-4 2 8 66.19 6.1
-4 2 8 56.19 6.5
3 -2 -8 19.1 6.4
3 -2 -8 12.4 7.3
3 -2 -8 13.7 5.6
-3 2 8 14.7 3
-3 2 8 9.5 8
-3 2 8 12.3 3.7
2 -2 -8 31.9 6.8
2 -2 -8 22.2 5.4
2 -2 -8 27.4 8
-2 2 8 23.5 6.4
-2 2 8 40.9 9.1
-2 2 8 20.3 3.2
-2 2 8 21.1 3.8
1 -2 -8 7.7 3.2
1 -2 -8 3.7 6.9
1 -2 -8 7.6 5.8
1 -2 -8 2.5 4.1
-1 2 8 2.8 5.3
-1 2 8 6.8 3.2
-1 2 8 7.3 2.5
0 -2 -8 5.9 5.8
0 -2 -8 -2.5 3.8
0 -2 -8 2 6
0 -2 -8 -4.7 2.5
0 2 8 0 3.3
0 2 8 3.3 2.5
0 2 8 -10.7 5.5
-1 -2 -8 17.9 5.6
-1 -2 -8 8.9 6.3
-1 -2 -8 1.4 5.3
-1 -2 -8 6.9 2.3
1 2 8 8.4 6.1
1 2 8 15 4.2
-2 -2 -8 3 6.1
-2 -2 -8 4.3 5.9
2 2 8 5.6 4.7
2 2 8 13.6 7.5
-3 -2 -8 10.6 6
-3 -2 -8 8.8 6.4
3 2 8 14 9.4
3 2 8 17.2 6.1
-4 -2 -8 11.7 7.5
-4 -2 -8 15.1 6.7
4 2 8 24 6.5
4 2 8 13.7 11.2
-5 -2 -8 3.1 7.9
-5 -2 -8 4.1 7.6
5 2 8 -6.6 15.2
5 2 8 -8.5 6.7
-6 -2 -8 20.4 10
-6 -2 -8 38 10.5
6 2 8 -5 17.8
-7 -2 -8 30.8 12.4
-7 -2 -8 43.9 12.6
7 2 8 21 23.5
7 2 8 19.4 19.5
9 -3 -8 -7.1 19.1
9 -3 -8 13.6 19
9 -3 -8 27.7 17.2
-9 3 8 5.5 7.7
8 -3 -8 18 15.8
8 -3 -8 31.1 14
8 -3 -8 0.3 15.8
-8 3 8 12.3 6.5
7 -3 -8 -7.5 12.9
7 -3 -8 -16.5 10.7
7 -3 -8 9.3 12.9
-7 3 8 -9.9 5.3
-7 3 8 7.3 5.2
6 -3 -8 16.5 9.9
6 -3 -8 1.7 9.9
6 -3 -8 3.8 11
-6 3 8 2.9 4.1
-6 3 8 -1.1 4.3
5 -3 -8 238.18 18.1
5 -3 -8 203.28 19.3
5 -3 -8 221.88 15.8
-5 3 8 237.18 11.3
-5 3 8 217.98 11.5
4 -3 -8 160.48 16.1
4 -3 -8 139.79 11.7
4 -3 -8 129.99 13.2
-4 3 8 129.29 8.7
-4 3 8 134.69 8.1
-4 3 8 118.59 13.8
3 -3 -8 266.57 14.3
3 -3 -8 273.97 19.3
3 -3 -8 274.67 15.4
-3 3 8 267.97 12.4
-3 3 8 266.47 11.1
-3 3 8 234.68 16
2 -3 -8 23.3 6.1
2 -3 -8 26.1 7.1
2 -3 -8 35.5 9.2
-2 3 8 24 4.4
-2 3 8 38.6 4.8
-2 3 8 29.3 8.4
1 -3 -8 3.8 5.5
1 -3 -8 0 7.4
1 -3 -8 -4.5 4.6
-1 3 8 4 3.4
-1 3 8 4.3 2.7
0 -3 -8 3.4 7
0 -3 -8 2.7 5.1
0 -3 -8 3.6 5
0 -3 -8 4.3 2.5
0 3 8 8.8 2.9
0 3 8 0.5 3.8
-1 -3 -8 223.78 13.7
-1 -3 -8 218.98 13.2
-1 -3 -8 218.78 14
1 3 8 215.48 15.5
1 3 8 221.98 12
-2 -3 -8 31.3 7.3
-2 -3 -8 26.9 6.7
2 3 8 30.5 9.4
2 3 8 35.7 6
-3 -3 -8 -1.3 6
-3 -3 -8 0.7 6.3
3 3 8 -1.4 6
3 3 8 6.9 10.2
-4 -3 -8 4.1 8.2
-4 -3 -8 -0.5 8
4 3 8 3.1 6.9
4 3 8 -18.2 12.5
-5 -3 -8 20.9 9.4
-5 -3 -8 35.2 9.5
5 3 8 20.2 7.9
5 3 8 29 16.6
-6 -3 -8 32.4 11.7
-6 -3 -8 27.6 10.7
6 3 8 24.5 21.9
9 -4 -8 14.1 20
9 -4 -8 -10.5 18.8
-9 4 8 -8.4 7.6
8 -4 -8 -11.6 16
8 -4 -8 -25.8 14.8
8 -4 -8 -6.1 14.5
-8 4 8 2.9 6.4
-8 4 8 -0.7 6.4
7 -4 -8 9 14.1
7 -4 -8 3.2 11
7 -4 -8 6.1 13.8
-7 4 8 -8.1 5.9
-7 4 8 -1.7 5.3
6 -4 -8 141.99 16.1
6 -4 -8 158.98 19.1
6 -4 -8 112.89 18.2
-6 4 8 142.79 10.8
-6 4 8 159.78 11.1
5 -4 -8 63.69 11.5
5 -4 -8 46.3 11.2
5 -4 -8 57.89 12.6
-5 4 8 45.9 5.8
-5 4 8 60.49 8.3
4 -4 -8 27.4 10.5
4 -4 -8 29.9 8.6
4 -4 -8 27.6 7.6
4 -4 -8 17.6 3.9
-4 4 8 19 4
-4 4 8 24.9 5.1
-4 4 8 32.9 8.3
3 -4 -8 34.7 8.4
3 -4 -8 45 10.8
3 -4 -8 26.6 6.9
-3 4 8 22 4.9
-3 4 8 44.8 5.9
-3 4 8 26.2 8.1
2 -4 -8 48.8 10.2
2 -4 -8 31.1 6.9
2 -4 -8 56.29 8.5
-2 4 8 53.99 7.3
-2 4 8 47.7 5.5
-2 4 8 37.2 9.8
1 -4 -8 30.4 8.4
1 -4 -8 23.6 6.2
1 -4 -8 10.6 5.7
-1 4 8 25.5 4.9
-1 4 8 39.7 5.4
0 -4 -8 95.49 5.8
0 -4 -8 95.59 10.5
0 -4 -8 113.89 12
0 -4 -8 102.09 12
0 4 8 108.39 9.1
0 4 8 102.69 6.6
-1 -4 -8 55.59 9.3
-1 -4 -8 75.09 9.3
-1 -4 -8 69.29 11.5
1 4 8 53.99 10.7
1 4 8 62.09 8.6
-2 -4 -8 39.1 7.8
-2 -4 -8 39 7.9
-2 -4 -8 33.5 8.9
2 4 8 57.49 7.5
2 4 8 49.5 11.9
-3 -4 -8 20.7 8.5
-3 -4 -8 42.8 9
3 4 8 25.7 13.3
3 4 8 20.5 7.3
-4 -4 -8 5.6 8.6
-4 -4 -8 -6.6 9
4 4 8 -22 15.6
4 4 8 15.3 8.2
-5 -4 -8 29.7 10.7
-5 -4 -8 21.1 10.6
5 4 8 6.1 8.6
5 4 8 28 21.4
-6 -4 -8 2.3 11.6
-6 -4 -8 4.5 12
6 4 8 -16.4 24.2
9 -5 -8 -17.1 19.3
9 -5 -8 -11.4 19.6
-9 5 8 -0.6 8.2
8 -5 -8 -11.4 15.3
8 -5 -8 -1.2 16
-8 5 8 18.4 6.9
-8 5 8 19.6 7.5
7 -5 -8 -19.1 14
-7 5 8 6.2 6.2
-7 5 8 -10 5.7
6 -5 -8 163.78 21.3
6 -5 -8 131.79 19.8
-6 5 8 152.08 12
-6 5 8 168.68 12
5 -5 -8 15.5 10.6
5 -5 -8 -15.1 9
-5 5 8 -4.4 4.2
-5 5 8 6.7 5.1
4 -5 -8 15.3 10.7
4 -5 -8 27.4 9.2
-4 5 8 29.8 4.8
-4 5 8 24.4 5.6
3 -5 -8 7 5.5
3 -5 -8 6.8 7.4
3 -5 -8 17.5 9.6
-3 5 8 8.3 4.6
-3 5 8 7.7 3.7
2 -5 -8 0.5 8
2 -5 -8 10.1 6.8
2 -5 -8 5.9 5.5
-2 5 8 4.4 4.5
-2 5 8 -5.5 10.1
-2 5 8 4.2 3.4
1 -5 -8 58.49 9.9
1 -5 -8 36.4 8
1 -5 -8 38.8 10
-1 5 8 60.99 8.6
-1 5 8 55.59 6
0 -5 -8 11.5 7.2
0 -5 -8 2.7 7.5
0 -5 -8 2.2 4
0 -5 -8 -4.9 6.1
0 5 8 -3.2 3.6
0 5 8 3.6 5.2
-1 -5 -8 3.1 6.4
-1 -5 -8 -16.1 8
-1 -5 -8 3.5 7.1
1 5 8 -0.8 5.8
1 5 8 -6.3 9.3
-2 -5 -8 7 10.1
-2 -5 -8 2.6 7.2
2 5 8 -1.8 6.4
2 5 8 6.3 11.7
-3 -5 -8 18.1 9.1
-3 -5 -8 19.3 8.6
3 5 8 11.9 7.8
3 5 8 9.3 15.9
-4 -5 -8 9.3 9.6
-4 -5 -8 5.1 10.9
4 5 8 -18.2 9.5
4 5 8 -21.1 18.3
-5 -5 -8 16.3 12.1
-5 -5 -8 12.9 11.3
5 5 8 44.6 23.4
9 -6 -8 -23.1 19.1
9 -6 -8 -40.5 20.4
-9 6 8 9 9.9
8 -6 -8 -29.4 15.6
8 -6 -8 7.9 16.4
-8 6 8 -7.9 8.2
-8 6 8 -10.3 8
7 -6 -8 43.3 17.1
7 -6 -8 43.2 17.3
-7 6 8 78.19 11.7
-7 6 8 53.19 8.7
6 -6 -8 97.89 17.1
6 -6 -8 120.59 18.5
-6 6 8 133.49 11.7
-6 6 8 138.39 12.7
5 -6 -8 -3.9 10.4
5 -6 -8 -15 10.2
-5 6 8 5.5 5.2
-5 6 8 -2.1 5.9
4 -6 -8 12.3 9.6
4 -6 -8 -1.5 9.5
-4 6 8 -1.4 4.5
-4 6 8 -4.7 5.3
3 -6 -8 7.2 8.5
3 -6 -8 4.6 9.7
-3 6 8 -7.3 3.9
-3 6 8 5.3 5.4
2 -6 -8 19.7 9.5
2 -6 -8 28.8 9
-2 6 8 30.3 5.8
-2 6 8 39.6 5
1 -6 -8 -3.4 7.5
1 -6 -8 8 8.6
1 -6 -8 8.7 6.1
-1 6 8 1.2 3.9
-1 6 8 8.7 6.1
0 -6 -8 308.97 15.6
0 -6 -8 272.47 18.6
0 6 8 277.87 11.7
0 6 8 299.47 16.9
-1 -6 -8 19.4 11.3
-1 -6 -8 31.4 9.1
-1 -6 -8 46.8 8.9
1 6 8 31 8
1 6 8 33.9 13.4
-2 -6 -8 24.9 9.2
-2 -6 -8 20.7 11.8
-2 -6 -8 18.5 9.4
2 6 8 37.1 15.2
2 6 8 -2.4 8.5
-3 -6 -8 16.6 9.8
-3 -6 -8 15 10.7
3 6 8 23.2 17.7
3 6 8 0.1 10.3
-4 -6 -8 -0.1 11.9
-4 -6 -8 19.2 11.1
4 6 8 -5.9 21.6
4 6 8 -7.8 11
9 -7 -8 24.8 22
-9 7 8 32.4 10.6
8 -7 -8 32.1 19.7
-8 7 8 10.2 8.3
-8 7 8 27.7 9.4
7 -7 -8 -5.1 15.5
7 -7 -8 10.5 15.7
-7 7 8 11.5 8.3
-7 7 8 17.4 7
6 -7 -8 -19 13.5
6 -7 -8 -11 14.8
-6 7 8 -5.4 7.6
-6 7 8 10 7.1
5 -7 -8 3 12.1
5 -7 -8 -15.6 11.8
-5 7 8 10.4 6.7
-5 7 8 1.2 5.7
4 -7 -8 12.2 11.9
4 -7 -8 15.2 10.4
-4 7 8 34.8 8.8
-4 7 8 29.9 6.2
3 -7 -8 21.3 10.1
3 -7 -8 9.7 9.8
-3 7 8 -3.5 4.8
-3 7 8 5.4 7.1
2 -7 -8 41.5 11.7
2 -7 -8 57.69 11.8
-2 7 8 33.1 8.7
-2 7 8 35.3 5.4
1 -7 -8 66.09 10.1
1 -7 -8 22.8 11.3
1 -7 -8 72.49 13.3
-1 7 8 41.5 5.6
-1 7 8 50.69 9.1
0 -7 -8 30.3 12.6
0 -7 -8 46.9 10.7
0 -7 -8 36.7 8
0 7 8 32.8 9
0 7 8 50.59 16.1
-1 -7 -8 28.7 10.2
-1 -7 -8 8.8 13.6
-1 -7 -8 13.1 7.9
1 7 8 29.8 16.9
1 7 8 1.2 9.4
-2 -7 -8 13.9 9.8
-2 -7 -8 -10.6 14
-2 -7 -8 33.1 11.4
2 7 8 2.3 9.3
2 7 8 5.6 19
-3 -7 -8 37.2 13
3 7 8 -4.7 21.3
3 7 8 17.6 11.6
-4 -7 -8 24.7 14
-4 -7 -8 -5.2 12.7
4 7 8 8.9 26.9
8 -8 -8 16.9 19.8
8 -8 -8 -28.7 18.6
-8 8 8 -20.8 10.2
-8 8 8 -1.3 8.8
7 -8 -8 -28.5 15.5
-7 8 8 10.2 7.9
-7 8 8 28.8 10
6 -8 -8 -7.6 14
6 -8 -8 17.1 14.8
-6 8 8 18.6 7.8
-6 8 8 23.1 8.8
5 -8 -8 33.2 14.3
5 -8 -8 15.1 13.4
-5 8 8 24.8 8.1
-5 8 8 46.9 8.5
4 -8 -8 23.6 12.4
4 -8 -8 3.1 12.7
-4 8 8 13.3 8.5
-4 8 8 18.4 6.9
3 -8 -8 66.09 14.1
3 -8 -8 41.4 12.4
-3 8 8 44.1 10
-3 8 8 46 7.4
2 -8 -8 57.39 12.6
2 -8 -8 18.5 11.8
-2 8 8 33.1 6.3
-2 8 8 26.5 9.7
1 -8 -8 31.5 12.2
1 -8 -8 19 12.1
-1 8 8 7.6 9.2
-1 8 8 11.3 5.3
0 -8 -8 7.6 13.1
0 -8 -8 17.8 11.4
0 -8 -8 23.9 8
0 8 8 13.2 9.6
0 8 8 0.5 16.2
-1 -8 -8 6.8 15.1
-1 -8 -8 7.2 9.6
-1 -8 -8 18.1 11.4
1 8 8 11 10.2
1 8 8 10.7 19.4
-2 -8 -8 28.6 13.2
-2 -8 -8 30.9 17
-2 -8 -8 15.8 10.4
2 8 8 2.1 12.1
2 8 8 1.8 22.4
7 -9 -8 2.5 17.4
7 -9 -8 -1.2 18.4
-7 9 8 8 9.3
-7 9 8 -14.4 10.2
6 -9 -8 6.3 16.8
6 -9 -8 17.4 14.7
-6 9 8 19.4 8.7
-6 9 8 30.2 10.4
5 -9 -8 17.2 14.3
5 -9 -8 4.3 14.4
-5 9 8 12.1 9.5
-5 9 8 10.2 8.1
4 -9 -8 40 14
4 -9 -8 0.3 12.9
-4 9 8 23.9 8.1
-4 9 8 24.6 9.9
3 -9 -8 11 13.4
-3 9 8 51.79 10.2
-3 9 8 28.6 8.1
2 -9 -8 -21.5 12.4
2 -9 -8 29.2 13.8
-2 9 8 18.5 9.8
-2 9 8 3.7 7
1 -9 -8 7.2 12.2
1 -9 -8 -1.3 13.5
-1 9 8 1.5 10.3
0 -9 -8 -6.8 14.4
0 -9 -8 22.6 12.6
0 9 8 24 11.2
0 9 8 -28.6 20
-1 -9 -8 12.2 17.9
-1 -9 -8 31.3 14.2
-1 -9 -8 -9.8 13.4
1 9 8 14.1 12.7
1 9 8 -11.6 24.6
6 -10 -8 11.6 18.7
6 -10 -8 32.3 17.3
-6 10 8 21.4 11.6
-6 10 8 15.5 10
5 -10 -8 -1.3 14.9
5 -10 -8 23.7 16.4
-5 10 8 17 9.4
-5 10 8 -10.2 11.6
4 -10 -8 43.7 15.5
4 -10 -8 -19.5 15.5
-4 10 8 10.2 11.2
-4 10 8 -0.6 9.2
3 -10 -8 39.6 15.3
3 -10 -8 11.3 15.8
-3 10 8 4.2 11.6
-3 10 8 15.9 9.6
2 -10 -8 14.7 15.6
2 -10 -8 44.2 14.9
-2 10 8 3.7 11.8
1 -10 -8 4.1 16
1 -10 -8 16 14.9
-1 10 8 5.1 12.6
1 11 -9 -2.7 24.5
1 11 -9 -8.4 12.5
1 11 -9 44.5 15.4
-1 -11 9 17 16.3
0 11 -9 77.39 16
0 11 -9 27 20.6
0 11 -9 57.89 12
0 -11 9 25.1 15.4
-1 11 -9 -15.4 15
-1 11 -9 -5.5 10.3
1 -11 9 2.6 14.1
-2 11 -9 5.1 14.9
-2 11 -9 -10.7 10
2 -11 9 -10.3 14.2
-3 11 -9 17.9 9.4
-3 11 -9 -29.7 16.1
3 -11 9 4.6 14.5
-4 11 -9 10.1 8.5
-4 11 -9 5.4 15.8
4 -11 9 -7.9 14.1
2 10 -9 0.2 13.1
2 10 -9 5.9 24.4
2 10 -9 -71.69 34.7
2 10 -9 25.7 12.6
-2 -10 9 2 7.9
-2 -10 9 34.8 14
1 10 -9 68.39 14.3
1 10 -9 1.1 21.9
1 10 -9 47.6 11.9
1 10 -9 46.4 37.4
-1 -10 9 40.6 8.5
-1 -10 9 62.49 14.6
0 10 -9 3.6 10
0 10 -9 19.5 20.5
0 10 -9 18.9 12.4
0 -10 9 3.8 12.4
-1 10 -9 27.3 17.4
-1 10 -9 50.09 10.3
-1 10 -9 84.59 14.7
1 -10 9 69.49 13.1
-2 10 -9 11 13.6
2 -10 9 3.2 11.4
-3 10 -9 -0.2 13.3
-3 10 -9 6.7 8.4
3 -10 9 -0.1 11.2
-4 10 -9 2.6 7.7
-4 10 -9 -6.3 13.7
4 -10 9 8.2 11.4
-5 10 -9 0.6 14.2
-5 10 -9 12.2 8.7
5 -10 9 23.1 12.4
-6 10 -9 -15.8 8.6
-6 10 -9 -5.7 12.5
6 -10 9 15.2 13.7
4 9 -9 -7.7 13.7
4 9 -9 1.7 27.7
4 9 -9 -51.39 39.8
-4 -9 9 -9.3 8.3
3 9 -9 -24 23.1
3 9 -9 -3.3 34.2
3 9 -9 4.1 11.3
3 9 -9 30.2 18.9
3 9 -9 -2 11.5
-3 -9 9 -4.7 7
-3 -9 9 -17 12.6
2 9 -9 -24.2 15.6
2 9 -9 -1.8 9.8
2 9 -9 1.9 11.5
2 9 -9 -5.8 20.9
2 9 -9 -8.3 30.1
-2 -9 9 19 11.4
-2 -9 9 -2.9 6.8
1 9 -9 5.8 22.4
1 9 -9 25.8 13.4
1 9 -9 -7 10.3
1 9 -9 -11.7 10
1 9 -9 19.9 20.2
-1 -9 9 22.8 10.9
-1 -9 9 10.6 6.3
0 9 -9 20.3 12.3
0 9 -9 27.1 16.4
0 9 -9 21.3 9.5
0 -9 9 23.2 10.1
0 -9 9 12.1 6.1
0 -9 9 18.3 8.9
-1 9 -9 8.3 8.7
-1 9 -9 -12.8 14.2
-1 9 -9 8.8 10.1
1 -9 9 11.4 9.5
1 -9 9 8 8
-2 9 -9 6.5 7.9
-2 9 -9 -12.1 13.6
2 -9 9 -1.2 10.7
2 -9 9 9.6 8.4
-3 9 -9 26.7 7.6
3 -9 9 27.7 9.2
3 -9 9 22.2 9.6
-4 9 -9 111.19 11
-4 9 -9 93.39 11.8
4 -9 9 114.69 18.1
4 -9 9 68.19 13.7
-5 9 -9 19 7.6
5 -9 9 16.5 10.7
-6 9 -9 6.5 7.6
6 -9 9 5 11.2
5 8 -9 -7.7 23
5 8 -9 21.7 29.9
5 8 -9 17.2 37.8
4 8 -9 19.5 35
4 8 -9 23.8 19.6
4 8 -9 23.2 24.7
4 8 -9 -4.5 13.5
-4 -8 9 0.4 7
3 8 -9 30.6 28.5
3 8 -9 1.3 21
3 8 -9 15.3 11.3
3 8 -9 -2.5 15.7
3 8 -9 15 9.4
-3 -8 9 -2.1 6.6
-3 -8 9 20 9.7
2 8 -9 9.3 10.4
2 8 -9 16.3 22.4
2 8 -9 1.2 13.3
2 8 -9 -12.7 17.2
-2 -8 9 10.4 5.9
-2 -8 9 16.7 8.8
1 8 -9 -9.6 14.3
1 8 -9 9.7 11.6
1 8 -9 15.4 9.6
1 8 -9 4.6 18.1
-1 -8 9 5.3 8.2
-1 -8 9 -1.4 5.6
0 8 -9 11.5 10.5
0 8 -9 18.8 8.5
0 8 -9 20.5 12.9
0 -8 9 18.7 8.3
0 -8 9 14.2 7.2
0 -8 9 11.5 5.6
-1 8 -9 -0.3 8.8
-1 8 -9 -7.3 11.9
-1 8 -9 8.6 7.9
1 -8 9 -4.3 8.5
1 -8 9 0.9 6.1
1 -8 9 -9.5 6.4
-2 8 -9 -17.1 11.6
-2 8 -9 -7.9 6.3
2 -8 9 -6.5 7.6
2 -8 9 5.3 6.7
-3 8 -9 22.1 7.3
-3 8 -9 -8.9 12.1
3 -8 9 11.3 8.3
3 -8 9 -1.8 7.2
-4 8 -9 32.1 7.1
-4 8 -9 23.6 10.7
4 -8 9 28.2 8.7
4 -8 9 4.4 9.1
-5 8 -9 101.09 12.6
-5 8 -9 91.99 12.5
5 -8 9 78.59 11.1
5 -8 9 63.39 12.4
-6 8 -9 -1.7 6.9
-6 8 -9 3.6 9.3
6 -8 9 -8.5 9.7
6 -8 9 -27.4 12.8
-7 8 -9 39.9 8.9
7 -8 9 7.6 11.6
6 7 -9 22.2 23.4
6 7 -9 1.5 34.9
6 7 -9 57.49 31
-6 -7 9 23.6 8.7
-6 -7 9 24.6 12.2
5 7 -9 -11.3 30.6
5 7 -9 12.7 25.4
5 7 -9 -7.4 20.5
-5 -7 9 -3 7.4
4 7 -9 68.79 21.5
4 7 -9 39.6 8.7
4 7 -9 44.9 16.4
4 7 -9 42.3 27.3
-4 -7 9 22.8 7.4
-4 -7 9 26.8 9.1
3 7 -9 28.1 17.9
3 7 -9 18.9 22.2
3 7 -9 35.4 13.7
-3 -7 9 23.4 8.5
-3 -7 9 35.6 7
2 7 -9 181.18 22.6
2 7 -9 198.18 29.4
2 7 -9 197.68 25.5
-2 -7 9 171.48 11.5
-2 -7 9 210.38 14.4
1 7 -9 50.89 14.5
1 7 -9 74.99 11.7
1 7 -9 62.79 9.9
1 7 -9 98.59 17
-1 -7 9 60.99 8.5
-1 -7 9 72.29 8.7
0 7 -9 -13.6 10.8
0 7 -9 18.8 7
0 -7 9 1.6 4.6
0 -7 9 8 6.2
-1 7 -9 71.29 13.2
-1 7 -9 47.5 7.5
1 -7 9 57.89 8.2
1 -7 9 48.6 7.8
-2 7 -9 67.49 10
-2 7 -9 43.3 12.7
2 -7 9 58.69 8.3
2 -7 9 68.49 11
-3 7 -9 22.5 6.3
-3 7 -9 11.9 11
3 -7 9 17.8 7.2
3 -7 9 22.5 8.1
-4 7 -9 10.3 9.5
-4 7 -9 26.4 7.2
4 -7 9 27.4 8.8
4 -7 9 23 8.5
-5 7 -9 44.5 9.4
-5 7 -9 18 6.6
5 -7 9 27.8 10.9
5 -7 9 26 8.8
-6 7 -9 -4.5 6.2
-6 7 -9 0.7 7.6
6 -7 9 -2.4 11.9
6 -7 9 -4.3 9.8
-7 7 -9 67.69 9.3
-7 7 -9 82.39 11.9
7 -7 9 64.59 18.6
7 -7 9 67.69 12.1
7 6 -9 0.2 33.6
6 6 -9 19.3 21
6 6 -9 31.4 26.2
6 6 -9 -0.2 29.3
-6 -6 9 4.8 9.7
-6 -6 9 7.6 7.6
5 6 -9 6.6 20.7
5 6 -9 11.7 16.8
5 6 -9 18.8 25.3
-5 -6 9 3.1 8.8
-5 -6 9 6.6 6.9
4 6 -9 40.7 14.5
4 6 -9 49.6 26.1
4 6 -9 50.89 19.7
-4 -6 9 45.1 6.7
-4 -6 9 35.2 7.9
3 6 -9 201.18 28.8
3 6 -9 177.78 24.7
3 6 -9 150.48 20.3
-3 -6 9 170.78 12.2
-3 -6 9 153.18 10.5
2 6 -9 132.09 18.6
2 6 -9 130.59 19.2
2 6 -9 106.39 12.7
-2 -6 9 102.19 8.7
-2 -6 9 96.59 10.5
1 6 -9 202.48 20.6
1 6 -9 235.58 19.8
-1 -6 9 230.48 11.6
-1 -6 9 235.08 13.5
0 6 -9 72.19 10.4
0 6 -9 95.99 15.2
0 -6 9 86.99 7.8
0 -6 9 87.29 9.6
-1 6 -9 164.28 17
-1 6 -9 167.48 12.4
1 -6 9 163.38 9.7
1 -6 9 170.98 11.7
-2 6 -9 1.9 5.1
-2 6 -9 3.9 9.9
2 -6 9 2.1 3.8
2 -6 9 -3.9 4.9
-3 6 -9 43 6
-3 6 -9 54.19 11.6
3 -6 9 48.6 7.5
3 -6 9 36.8 7.7
-4 6 -9 25.7 5.7
-4 6 -9 25.9 9.2
4 -6 9 31.4 9.3
4 -6 9 34.8 7.9
-5 6 -9 4.5 5.1
-5 6 -9 8.7 7.2
5 -6 9 9.5 7.9
5 -6 9 5.8 9.5
-6 6 -9 2.9 7.9
-6 6 -9 14.9 6.2
6 -6 9 15.4 8.6
6 -6 9 -13.5 12.1
-7 6 -9 15.6 11.1
-7 6 -9 14.6 6.8
7 -6 9 -4 15.4
7 -6 9 12.7 9.1
-8 6 -9 33.5 11.5
-8 6 -9 2.2 6.8
8 -6 9 35 18.7
8 -6 9 1 10.7
7 5 -9 -0.3 21.5
7 5 -9 -34.8 27.2
7 5 -9 -0.1 26.7
-7 -5 9 -9 10
-7 -5 9 7.7 8.1
6 5 -9 128.29 25.4
6 5 -9 124.79 28.7
6 5 -9 78.39 21.5
-6 -5 9 103.39 11.9
-6 -5 9 80.89 13.2
5 5 -9 20.5 14.6
5 5 -9 9.3 17.6
5 5 -9 22.5 23
-5 -5 9 9.7 5.6
-5 -5 9 10.4 7.2
4 5 -9 21.7 12
4 5 -9 4.8 13.8
4 5 -9 14.2 16.8
-4 -5 9 11.1 5.9
-4 -5 9 15.3 5
3 5 -9 1 13.3
3 5 -9 -3 10.9
3 5 -9 1.1 8.8
-3 -5 9 -4 5.1
2 5 -9 42.1 11.6
2 5 -9 47.4 13.1
2 5 -9 49.2 8.7
-2 -5 9 53.39 8.3
-2 -5 9 56.19 7.1
1 5 -9 10.1 9.3
1 5 -9 1.7 9.3
-1 -5 9 5.8 4.5
-1 -5 9 -2.2 3.5
0 5 -9 135.39 15.5
0 -5 9 138.49 8.2
0 -5 9 139.69 10.1
-1 5 -9 235.18 18.1
-1 5 -9 205.68 12.6
1 -5 9 217.38 10.4
1 -5 9 211.68 12.2
-2 5 -9 -3.8 4.5
-2 5 -9 20.4 10.4
2 -5 9 -1.1 3.4
2 -5 9 6.3 4.6
-3 5 -9 6.2 9.6
-3 5 -9 0.7 4.3
3 -5 9 1.2 3.7
3 -5 9 -6.7 5
-4 5 -9 85.69 11.4
-4 5 -9 64.19 8.6
4 -5 9 57.09 9.4
4 -5 9 72.19 9.4
-5 5 -9 95.69 12.1
-5 5 -9 78.39 9.1
5 -5 9 72.09 11.5
5 -5 9 76.09 11.8
-6 5 -9 55.29 6.7
-6 5 -9 86.49 13.9
6 -5 9 75.39 13.2
6 -5 9 42.5 8.7
-7 5 -9 16.8 10.9
-7 5 -9 -0.4 6
7 -5 9 7.8 15.5
7 -5 9 0.3 8.9
-8 5 -9 30.6 12.4
8 -5 9 6 19.4
8 -5 9 9.1 9.4
8 4 -9 -14.2 26.9
8 4 -9 7 25.5
8 4 -9 -15.9 29.5
-8 -4 9 -2.8 11.1
-8 -4 9 -14.4 8.2
7 4 -9 14.1 19.3
7 4 -9 21.9 24.9
7 4 -9 34.1 21.9
-7 -4 9 8.2 7.1
-7 -4 9 20.7 9.5
6 4 -9 -7.7 21.9
6 4 -9 -8.5 18.1
6 4 -9 27.7 15.2
-6 -4 9 0 7.3
-6 -4 9 -10.8 5.7
5 4 -9 61.59 21.5
5 4 -9 51.49 14.3
5 4 -9 93.99 19.6
-5 -4 9 52.09 6.3
-5 -4 9 44.8 8.8
4 4 -9 -10.4 10.3
4 4 -9 18.8 14.6
4 4 -9 0.9 9.3
-4 -4 9 -2.6 4.9
3 4 -9 5.5 5.9
3 4 -9 7.5 7.6
3 4 -9 2 11.4
3 4 -9 2.1 8.5
-3 -4 9 2.7 4.5
-3 -4 9 1.8 3.6
2 4 -9 22.3 9.7
2 4 -9 18.7 9
-2 -4 9 17.7 4.5
-2 -4 9 7.2 3.8
1 4 -9 114.49 13.5
1 4 -9 116.29 14.9
-1 -4 9 115.69 7.3
-1 -4 9 98.89 8.3
0 4 -9 225.68 16
0 -4 9 200.88 11.2
0 -4 9 212.08 9.8
-1 4 -9 74.99 12
1 -4 9 41.9 5.7
1 -4 9 54.59 7.1
-2 4 -9 55.69 11.3
-2 4 -9 26.6 5.1
2 -4 9 37.7 4.9
2 -4 9 36.1 5.7
-3 4 -9 76.29 11.9
-3 4 -9 40.8 7.2
-3 4 -9 49.9 5.9
3 -4 9 52.49 8.1
3 -4 9 45.5 7
3 -4 9 42 6.2
-4 4 -9 168.98 14.2
-4 4 -9 156.88 10.1
4 -4 9 148.79 11.7
4 -4 9 160.58 14.3
-5 4 -9 54.39 7.5
5 -4 9 39.3 10.5
5 -4 9 73.79 9.4
-6 4 -9 36.8 10.7
-6 4 -9 21.9 5.1
6 -4 9 37 7.9
6 -4 9 20.9 13
-7 4 -9 6.5 5.2
7 -4 9 -0.4 8.6
7 -4 9 -2.4 16.7
-8 4 -9 7.8 12.1
8 -4 9 3.4 19
8 3 -9 20.2 26
8 3 -9 27.4 22.2
8 3 -9 -14.7 22.9
-8 -3 9 6.6 8.4
-8 -3 9 -7 9.9
7 3 -9 -17.1 18.5
7 3 -9 15.5 19.3
7 3 -9 -8.7 21.5
-7 -3 9 2.7 8.8
-7 -3 9 -6.4 6.4
6 3 -9 0.9 15.1
6 3 -9 -6.8 18.1
6 3 -9 4.7 13.7
-6 -3 9 3.1 7
-6 -3 9 -1.5 5.3
5 3 -9 139.49 20.4
5 3 -9 139.79 24.7
5 3 -9 213.38 21.6
-5 -3 9 157.58 10.5
4 3 -9 9 9.8
4 3 -9 30.2 12.3
4 3 -9 22.3 10.3
-4 -3 9 9.5 4.4
-4 -3 9 6.2 3.8
3 3 -9 13.6 6.8
3 3 -9 23.1 8.8
3 3 -9 21.5 5.1
3 3 -9 31.8 11.3
-3 -3 9 22 4.7
-3 -3 9 13.6 6.3
-3 -3 9 19 4
2 3 -9 15.9 7.8
2 3 -9 6.4 8.9
-2 -3 9 14.9 4.1
-2 -3 9 14.9 3.5
1 3 -9 106.39 11.8
1 3 -9 96.49 11.3
-1 -3 9 83.29 6.2
-1 -3 9 77.89 7.1
0 3 -9 21 7.4
0 3 -9 4.3 6.1
0 -3 9 15.5 8.2
0 -3 9 13.6 3.7
0 -3 9 10.2 3
-1 3 -9 27.3 8.5
1 -3 9 17.9 4.1
1 -3 9 9 3
-2 3 -9 173.78 10.4
-2 3 -9 186.98 15.9
2 -3 9 171.48 10.5
2 -3 9 170.98 8.5
-3 3 -9 184.08 15.5
-3 3 -9 192.88 10
-3 3 -9 176.78 12.2
3 -3 9 185.18 11.5
3 -3 9 199.28 9.2
3 -3 9 193.38 12.8
-4 3 -9 141.99 13.2
-4 3 -9 122.99 8.7
4 -3 9 132.29 15.2
4 -3 9 145.09 10.8
-5 3 -9 67.59 7.2
-5 3 -9 117.09 12.8
5 -3 9 103.29 14.2
5 -3 9 89.89 10.6
-6 3 -9 37.1 5.1
-6 3 -9 62.39 11.3
6 -3 9 52.59 14.3
6 -3 9 38.4 7.6
-7 3 -9 222.98 19.8
7 -3 9 185.68 24.5
7 -3 9 148.29 15.4
-8 3 -9 -1.9 11.9
8 -3 9 51.19 22.3
9 2 -9 1.8 22.5
8 2 -9 -8 24.2
8 2 -9 9.9 19.1
8 2 -9 -1.5 18.8
-8 -2 9 5.1 7.7
-8 -2 9 -4.1 9.2
7 2 -9 -4.2 14.3
7 2 -9 -3.9 18.6
7 2 -9 20.1 16.5
-7 -2 9 -7.2 6.4
-7 -2 9 -5.2 7.5
6 2 -9 -13.2 12.2
6 2 -9 1.9 11.5
6 2 -9 -8.3 16.6
-6 -2 9 6.4 5
-6 -2 9 1.5 6.5
5 2 -9 40.1 10.9
5 2 -9 28.1 13.4
5 2 -9 19.8 10.5
-5 -2 9 27.6 4.9
4 2 -9 29.5 9.5
4 2 -9 26.5 11.6
4 2 -9 29.4 8.4
-4 -2 9 23.2 4.5
-4 -2 9 22.3 4.2
3 2 -9 32 9.2
3 2 -9 9.8 9.5
3 2 -9 20 6.1
-3 -2 9 21.3 3.7
-3 -2 9 17.6 4.6
-3 -2 9 20 6.7
2 2 -9 12.1 7
2 2 -9 11.9 7.6
-2 -2 9 9.2 3.6
-2 -2 9 7.4 2.8
1 2 -9 1.3 6
1 2 -9 2.1 6.5
-1 -2 9 -4.3 2.6
-1 -2 9 0.3 3.2
0 2 -9 132.79 12.9
0 2 -9 133.19 11.3
0 -2 9 114.79 13
0 -2 9 112.29 6.7
0 -2 9 117.09 8.1
-1 2 -9 16.9 8
-1 2 -9 19.1 6.7
1 -2 9 13.2 4.1
1 -2 9 12.8 7.2
1 -2 9 20.5 3.2
-2 2 -9 21.5 9.4
2 -2 9 21.7 3.4
2 -2 9 19.1 4.6
-3 2 -9 11.2 6.8
-3 2 -9 7.7 6.2
-3 2 -9 15.8 4
3 -2 9 9.8 5.1
3 -2 9 13.9 7.2
3 -2 9 21.5 5.3
-4 2 -9 86.29 12
-4 2 -9 101.69 7.2
4 -2 9 84.99 14.5
4 -2 9 100.59 9.8
-5 2 -9 63.99 6.3
-5 2 -9 64.09 11.1
5 -2 9 49 12.3
5 -2 9 64.39 10.1
-6 2 -9 -0.9 9.3
-6 2 -9 4.9 3.9
6 -2 9 35.5 14.2
6 -2 9 -0.1 6.7
-7 2 -9 11.5 11.2
7 -2 9 21.5 7.9
7 -2 9 11.2 18.4
-8 2 -9 11.1 12.6
8 -2 9 16.7 23.5
9 1 -9 46.8 21.1
9 1 -9 45.3 22.4
9 1 -9 42.3 26.9
-9 -1 9 41.8 9
-9 -1 9 39.2 11
8 1 -9 12.2 16.9
8 1 -9 9.6 17.3
8 1 -9 51.79 23.1
-8 -1 9 0.6 8.2
-8 -1 9 -2.6 6.7
7 1 -9 3.8 13.4
7 1 -9 0.1 13
7 1 -9 0.1 17.1
-7 -1 9 -3 5.9
-7 -1 9 1 7.4
6 1 -9 -5.2 10.1
6 1 -9 -16.8 14.5
6 1 -9 -8.4 10.3
-6 -1 9 6.9 4.5
5 1 -9 25.4 10
5 1 -9 19 8.6
5 1 -9 18.9 12.1
5 1 -9 19.8 4.7
-5 -1 9 27.2 4.8
-5 -1 9 25.3 4.8
4 1 -9 451.25 21.7
4 1 -9 478.05 24.5
4 1 -9 492.85 27.3
-4 -1 9 497.55 17.5
-4 -1 9 482.45 17.4
3 1 -9 21.6 8.4
3 1 -9 5.4 5.1
3 1 -9 2.9 6.8
-3 -1 9 10.4 6.5
-3 -1 9 3.8 3.9
-3 -1 9 4.9 3
2 1 -9 -1.1 5.6
2 1 -9 4.1 7.3
-2 -1 9 2 3.2
-2 -1 9 2 2.3
1 1 -9 29 7.5
1 1 -9 36.9 7.6
-1 -1 9 23.2 3.4
-1 -1 9 20.8 3.9
0 1 -9 34.1 7.6
0 1 -9 21.9 7.4
0 -1 9 12.4 8.9
0 -1 9 18.2 3.9
0 -1 9 25.9 3.8
-1 1 -9 13.4 6.4
-1 1 -9 10.4 7.5
1 -1 9 1.5 8.8
1 -1 9 16 4.3
1 -1 9 18.2 3
-2 1 -9 17.4 8.2
-2 1 -9 15.2 3.7
-2 1 -9 21 6
2 -1 9 27.1 3.5
2 -1 9 31 6.2
2 -1 9 21.2 4.9
2 -1 9 30.7 4.8
-3 1 -9 48.5 6
-3 1 -9 43.4 6.7
-3 1 -9 47.5 4.9
-3 1 -9 42.8 8.7
3 -1 9 56.09 8.9
3 -1 9 55.79 5.2
3 -1 9 53.99 7.2
-4 1 -9 111.89 7
-4 1 -9 133.89 12.3
-4 1 -9 100.89 9.3
-4 1 -9 85.19 8.2
4 -1 9 113.79 16
4 -1 9 112.69 10.3
-5 1 -9 279.27 14.5
-5 1 -9 298.47 18.9
5 -1 9 281.17 24.2
5 -1 9 284.77 15.6
-6 1 -9 9.5 7.5
-6 1 -9 11.3 9.6
6 -1 9 8.8 7.2
6 -1 9 -17.8 13.8
-7 1 -9 7.1 8.9
-7 1 -9 23.3 11.4
7 -1 9 -19.1 16.3
7 -1 9 -0.4 19.6
8 -1 9 61.59 23.7
9 0 -9 10.9 19.7
9 0 -9 -47.1 23.5
-9 0 9 -4.9 9.9
-9 0 9 5.8 8.5
8 0 -9 25.4 16.7
8 0 -9 35 17.5
8 0 -9 37.3 21.7
-8 0 9 27.9 7.1
-8 0 9 28.4 8.8
7 0 -9 -17.3 12.3
7 0 -9 6.9 12.6
7 0 -9 15.7 16.6
-7 0 9 5.4 6.1
6 0 -9 108.99 16.7
6 0 -9 123.29 19
6 0 -9 127.99 22.5
-6 0 9 111.59 9.5
5 0 -9 14.7 11.2
5 0 -9 17.6 8.5
5 0 -9 21.5 9.1
-5 0 9 21.1 4.2
-5 0 9 14.2 4.5
4 0 -9 35.1 9.1
4 0 -9 29.7 7.3
4 0 -9 35.6 10.3
-4 0 9 25.9 5
-4 0 9 20.4 3.9
3 0 -9 90.09 11.4
3 0 -9 100.29 9.9
3 0 -9 91.59 13.9
-3 0 9 71.09 10.6
-3 0 9 92.09 7.5
-3 0 9 85.09 6.5
2 0 -9 -1.1 5.6
2 0 -9 8.3 7
2 0 -9 3.9 3.6
-2 0 9 7 2.6
-2 0 9 8.3 4.9
-2 0 9 6.5 3.5
1 0 -9 18.4 7.3
1 0 -9 14.7 5.3
-1 0 9 10.6 3.8
-1 0 9 11.9 2.8
0 0 -9 267.17 16.3
0 0 -9 263.07 16.4
0 0 -9 271.07 10.4
0 0 9 255.57 11.3
0 0 9 270.57 12.4
0 0 9 271.07 10.2
-1 0 -9 12.2 3.4
-1 0 -9 19.5 6.6
-1 0 -9 23 7.9
1 0 9 10.3 5
1 0 9 17.5 3
1 0 9 14.1 4
1 0 9 13.7 3.9
-2 0 -9 534.25 19.9
-2 0 -9 512.25 16
2 0 9 520.85 19.6
2 0 9 489.95 21.8
2 0 9 516.45 19
2 0 9 445.76 15.6
-3 0 -9 331.07 15.2
-3 0 -9 337.37 17.6
3 0 9 321.87 19.4
3 0 9 340.17 15.5
-4 0 -9 75.39 9.4
-4 0 -9 79.39 10.1
4 0 9 87.49 13.3
4 0 9 78.49 10.1
-5 0 -9 27.3 7
-5 0 -9 32.2 9
5 0 9 23.8 7.5
5 0 9 44.2 13.7
-6 0 -9 27.2 10
-6 0 -9 20.1 8.6
6 0 9 37.9 18.1
6 0 9 4.1 7.4
-7 0 -9 18.1 11.1
-7 0 -9 8.1 11.1
7 0 9 -4.5 21.4
7 0 9 34.6 18.7
9 -1 -9 -6.3 22.2
9 -1 -9 -25.1 20
9 -1 -9 13.6 18.7
-9 1 9 13.1 8.1
8 -1 -9 1.9 18.9
8 -1 -9 0.8 16.5
8 -1 -9 9.5 16.2
-8 1 9 2.8 6.7
7 -1 -9 32 13.9
7 -1 -9 29.1 12.6
7 -1 -9 14.4 16
-7 1 9 22.6 6.3
6 -1 -9 -1.4 9.2
6 -1 -9 -4 12.3
6 -1 -9 -14.2 9.6
-6 1 9 5.2 5.4
-6 1 9 3.9 4.3
5 -1 -9 81.29 14.4
5 -1 -9 84.79 14.3
5 -1 -9 73.49 11.8
-5 1 9 64.49 8.1
-5 1 9 77.89 7.5
4 -1 -9 37.8 9.1
4 -1 -9 50.19 11.1
4 -1 -9 38.9 8.6
-4 1 9 49.8 6.1
-4 1 9 56.09 6.8
3 -1 -9 18.8 7.6
3 -1 -9 20.5 9
3 -1 -9 21.8 5.7
-3 1 9 25.8 4.2
-3 1 9 26 7.4
-3 1 9 20.1 3.5
2 -1 -9 180.28 10.7
2 -1 -9 180.78 13.2
2 -1 -9 176.48 15.1
-2 1 9 151.68 9.4
-2 1 9 177.08 11.6
-2 1 9 170.98 8.3
1 -1 -9 3.4 3.9
1 -1 -9 19.9 6.9
1 -1 -9 7.3 7.5
-1 1 9 9.2 3.8
-1 1 9 5.4 3
-1 1 9 -1.1 4.8
0 -1 -9 37.8 8.3
0 -1 -9 30.7 4.8
0 -1 -9 36.7 8.6
0 -1 -9 35.8 5.4
0 1 9 37.8 5.8
0 1 9 41.2 4.6
0 1 9 40.7 5.5
0 1 9 34.9 5.9
-1 -1 -9 58.99 10.1
-1 -1 -9 59.69 5.2
-1 -1 -9 61.59 10.8
1 1 9 55.49 9.6
1 1 9 72.69 8.6
1 1 9 66.39 7.4
1 1 9 56.29 5.1
-2 -1 -9 72.89 10.5
-2 -1 -9 59.29 9.8
2 1 9 67.69 10.2
2 1 9 82.19 8.9
-3 -1 -9 0.1 5.6
-3 -1 -9 -7.2 6.1
3 1 9 -0.6 5.2
3 1 9 8.9 8.6
-4 -1 -9 -2.2 6
-4 -1 -9 9 7.5
4 1 9 -0.4 5.9
4 1 9 10.5 10.2
-5 -1 -9 17.4 7.5
-5 -1 -9 12.8 9
5 1 9 4.9 7.1
5 1 9 -0.7 13.8
-6 -1 -9 -2.7 9.3
-6 -1 -9 13.3 9.7
6 1 9 6.4 7.3
6 1 9 17.5 18.5
-7 -1 -9 20.2 12.1
-7 -1 -9 -7.7 11.7
7 1 9 21 19.2
7 1 9 41.5 23
9 -2 -9 -7.6 17.4
9 -2 -9 -9.8 20.3
9 -2 -9 2.8 20.4
-9 2 9 5.3 8.1
8 -2 -9 -4.1 15.9
8 -2 -9 24.2 14.9
8 -2 -9 -3.2 16.8
-8 2 9 2.7 6.8
7 -2 -9 47.7 13.9
7 -2 -9 42 16.5
7 -2 -9 54.69 13.2
-7 2 9 44.7 7.1
-7 2 9 50.29 6.7
6 -2 -9 90.09 14.2
6 -2 -9 77.39 13.8
6 -2 -9 85.29 16.4
-6 2 9 90.19 9.3
-6 2 9 92.19 9.3
5 -2 -9 667.03 29
5 -2 -9 692.53 30.2
5 -2 -9 667.63 32.7
-5 2 9 660.33 23.3
-5 2 9 689.03 23.7
4 -2 -9 40.8 11.2
4 -2 -9 30.3 8.2
4 -2 -9 32.8 7.8
-4 2 9 28.7 4.3
-4 2 9 28.7 5.1
3 -2 -9 115.19 11.9
3 -2 -9 121.19 14.8
3 -2 -9 127.09 11.5
-3 2 9 122.49 7.7
-3 2 9 118.89 8.6
2 -2 -9 164.88 15.3
2 -2 -9 162.78 13.3
2 -2 -9 151.28 11.2
-2 2 9 161.88 8.2
-2 2 9 139.69 13.7
-2 2 9 153.68 9.5
1 -2 -9 35.4 5.7
1 -2 -9 37.9 8.3
1 -2 -9 28.1 8.9
-1 2 9 45.1 6.4
-1 2 9 35.1 7.6
-1 2 9 45.4 5.4
0 -2 -9 145.99 13
0 -2 -9 151.08 10.4
0 -2 -9 134.29 12.4
0 -2 -9 121.69 7.1
0 2 9 149.09 9.5
0 2 9 139.29 7
-1 -2 -9 20.3 6.1
-1 -2 -9 35.8 8.1
-1 -2 -9 30.8 8.2
-1 -2 -9 20.4 3
1 2 9 23.6 7
1 2 9 31 5.6
1 2 9 26.3 3.3
-2 -2 -9 80.59 11.1
-2 -2 -9 76.89 11.3
2 2 9 89.39 9.8
2 2 9 90.09 14.1
-3 -2 -9 9.3 6.4
-3 -2 -9 6.5 6.9
3 2 9 16.3 10
3 2 9 -0.6 5.9
-4 -2 -9 7 8.6
-4 -2 -9 -4.4 7.2
4 2 9 6 6.6
4 2 9 -0.2 12.5
-5 -2 -9 10.4 9.1
-5 -2 -9 -5 8
5 2 9 14.6 7.7
5 2 9 8.6 16.3
-6 -2 -9 13.6 9.9
-6 -2 -9 7.9 9.9
6 2 9 9.9 21.2
-7 -2 -9 15.8 13.1
7 2 9 -16 20.9
7 2 9 -13.8 24.6
9 -3 -9 7.4 21.1
9 -3 -9 -27.6 18.8
9 -3 -9 15.3 20.2
-9 3 9 11.5 8.3
8 -3 -9 -2 14.9
8 -3 -9 6 17.9
8 -3 -9 -4.7 17
-8 3 9 -7.2 6.6
7 -3 -9 2.9 12.3
7 -3 -9 9.1 15.4
7 -3 -9 5.7 13.1
-7 3 9 1.8 5.9
-7 3 9 5.3 6.2
6 -3 -9 130.99 19.1
6 -3 -9 119.79 20.7
6 -3 -9 139.79 16.6
-6 3 9 141.19 10.6
-6 3 9 137.99 11
5 -3 -9 46.8 10.5
5 -3 -9 42.4 9.8
5 -3 -9 30.2 11.4
-5 3 9 47.3 7.1
-5 3 9 39.3 5.9
4 -3 -9 180.08 14.5
4 -3 -9 185.38 18.6
4 -3 -9 175.08 15.5
-4 3 9 182.58 11
-4 3 9 187.98 10
3 -3 -9 68.19 11.1
3 -3 -9 68.89 12.8
3 -3 -9 69.69 12.1
-3 3 9 74.09 6.9
-3 3 9 62.29 7.4
2 -3 -9 -0.7 5.3
2 -3 -9 3.8 7.1
2 -3 -9 8.1 8.9
-2 3 9 1.8 3.1
-2 3 9 0.4 3.7
1 -3 -9 -6.6 7.6
1 -3 -9 0 6.3
1 -3 -9 2.6 5.4
-1 3 9 0.8 3.2
-1 3 9 0.9 4.1
0 -3 -9 21.2 3.4
0 -3 -9 17.3 6.2
0 -3 -9 20.2 7.7
0 -3 -9 11.1 6.5
0 3 9 23 3.6
0 3 9 18.3 5.1
-1 -3 -9 277.87 15.9
-1 -3 -9 262.67 16.2
-1 -3 -9 262.37 15.8
1 3 9 268.77 18.1
1 3 9 246.58 13.8
-2 -3 -9 68.59 10.9
-2 -3 -9 88.59 10.8
2 3 9 85.89 13.8
2 3 9 96.79 10.1
-3 -3 -9 -0.1 7.4
-3 -3 -9 7.1 7.2
3 3 9 5.6 6.7
3 3 9 0.1 10.9
-4 -3 -9 -0.6 8.7
-4 -3 -9 10.1 8.6
4 3 9 -12.2 7.8
4 3 9 4 15.3
-5 -3 -9 4.7 9.2
-5 -3 -9 1.5 9.7
5 3 9 -10.9 19.3
5 3 9 1.5 8.4
-6 -3 -9 56.29 12.5
-6 -3 -9 55.69 12.7
6 3 9 89.09 23.8
9 -4 -9 -24.3 18.7
9 -4 -9 -26.5 20.5
-9 4 9 9.4 9.1
8 -4 -9 13.3 16
8 -4 -9 0.9 17.8
8 -4 -9 25.1 15.1
-8 4 9 -0.6 7
-8 4 9 4.3 7.5
7 -4 -9 62.19 15.3
7 -4 -9 38.1 15.6
7 -4 -9 30 12.3
-7 4 9 41.5 7
-7 4 9 46.4 7.6
6 -4 -9 -9.7 11.8
6 -4 -9 10.8 10
6 -4 -9 -1.1 10.5
-6 4 9 6.8 5.5
-6 4 9 6 5.7
5 -4 -9 29.6 10.3
5 -4 -9 24.1 9.9
5 -4 -9 26.5 11.1
-5 4 9 25.7 5.9
-5 4 9 20.5 4.6
4 -4 -9 3.5 10.4
4 -4 -9 6.3 8
4 -4 -9 4.2 7.9
-4 4 9 5.2 4.6
-4 4 9 -2.3 3.8
3 -4 -9 14.3 9.9
3 -4 -9 16.2 7.6
3 -4 -9 14.9 7.5
-3 4 9 15.5 4
-3 4 9 14.3 4.8
2 -4 -9 6.5 6.3
2 -4 -9 6.1 9.1
2 -4 -9 9.3 6.3
-2 4 9 -2.3 4.3
-2 4 9 -1.5 3.4
1 -4 -9 27.6 6.7
1 -4 -9 25.9 8.9
1 -4 -9 31.7 7.4
-1 4 9 27.8 4.1
-1 4 9 33.2 5.7
0 -4 -9 20.4 4.2
0 -4 -9 33.9 8
0 -4 -9 25.5 7.6
0 -4 -9 18.2 8.3
0 4 9 30 4
0 4 9 16.9 5.4
-1 -4 -9 31.3 8.4
-1 -4 -9 27.7 7.2
-1 -4 -9 26.4 8.3
1 4 9 22.2 9.6
1 4 9 24.8 6.3
-2 -4 -9 16.1 7.2
-2 -4 -9 8.5 7.7
2 4 9 -2.1 10.6
2 4 9 4 6.4
-3 -4 -9 21 9
-3 -4 -9 34.4 9.5
3 4 9 21.2 14.5
3 4 9 21 7.8
-4 -4 -9 -5.1 8.8
-4 -4 -9 15 9.9
4 4 9 -3.2 8.9
4 4 9 -1.1 17.2
-5 -4 -9 8.8 11.3
-5 -4 -9 3.2 11
5 4 9 -1.7 21
5 4 9 0.8 9.3
9 -5 -9 -9.6 20.3
9 -5 -9 -31.6 19.8
-9 5 9 2.2 9
8 -5 -9 -20.1 15.7
8 -5 -9 -11.1 16.6
-8 5 9 -6.9 8.1
-8 5 9 4.9 7.6
7 -5 -9 -10 15.2
7 -5 -9 -0.1 14.1
-7 5 9 -2.8 6.6
-7 5 9 15 6.4
6 -5 -9 12.2 12.2
6 -5 -9 -18 12.5
-6 5 9 4.8 6.3
-6 5 9 11.6 6.1
5 -5 -9 42.5 13.2
5 -5 -9 54.09 11.7
-5 5 9 48.3 6.5
-5 5 9 52.49 7.6
4 -5 -9 27.9 11
4 -5 -9 28.4 9.5
4 -5 -9 25.8 7.6
-4 5 9 29.9 5.3
-4 5 9 19.4 6.2
3 -5 -9 26 8.8
3 -5 -9 17.4 6.7
3 -5 -9 14.5 10.7
-3 5 9 25.1 4.7
-3 5 9 7.8 5.5
2 -5 -9 64.29 9.6
2 -5 -9 44.7 9.2
2 -5 -9 49.3 11.3
-2 5 9 54.39 7.3
-2 5 9 62.09 8.9
1 -5 -9 61.89 11.4
1 -5 -9 44.6 10.2
1 -5 -9 39.8 8.6
-1 5 9 39.7 5
-1 5 9 32.1 6.5
0 -5 -9 272.97 18.4
0 -5 -9 298.07 16.4
0 -5 -9 266.57 17.8
0 5 9 254.77 11.2
0 5 9 251.07 15
-1 -5 -9 32.6 9.9
-1 -5 -9 36.7 9.2
-1 -5 -9 40.8 8.3
1 5 9 32.5 11
1 5 9 30.1 7.4
-2 -5 -9 -7.3 11.4
-2 -5 -9 12.2 8.9
-2 -5 -9 7.5 8.5
2 5 9 27.5 14.7
2 5 9 13.2 7.7
-3 -5 -9 12.3 10
-3 -5 -9 13.4 9.3
3 5 9 4.3 9.1
3 5 9 -12.4 15.9
-4 -5 -9 23.4 11.9
-4 -5 -9 28.8 11.1
4 5 9 35 20.4
4 5 9 11.4 12.1
-5 -5 -9 30.5 12.7
-5 -5 -9 24.8 13.4
5 5 9 1.9 24.8
9 -6 -9 -31.9 19.6
9 -6 -9 -7 20.9
-9 6 9 -14.6 10
8 -6 -9 -18.2 17.3
8 -6 -9 -18.3 16.3
-8 6 9 9.4 8.5
-8 6 9 4.1 9.1
7 -6 -9 -21.5 15.5
7 -6 -9 34 15.9
-7 6 9 12.8 8.8
-7 6 9 28.6 7.9
6 -6 -9 18.2 13.3
6 -6 -9 2.9 13.9
-6 6 9 7.3 6.4
-6 6 9 0.4 7.8
5 -6 -9 3.3 12.3
5 -6 -9 2.2 12.9
-5 6 9 9.2 5.8
-5 6 9 12.8 7
4 -6 -9 14.6 10.6
4 -6 -9 20 11.2
-4 6 9 28.4 5.6
-4 6 9 22.9 7.3
3 -6 -9 35.9 11.2
3 -6 -9 28.4 9.5
-3 6 9 42.1 7.7
-3 6 9 37.4 5.8
2 -6 -9 178.98 13.5
2 -6 -9 150.58 16.8
2 -6 -9 127.89 15.9
-2 6 9 140.69 9.7
-2 6 9 107.69 12.7
1 -6 -9 69.09 11.7
1 -6 -9 92.49 12.5
1 -6 -9 106.59 16.3
-1 6 9 73.89 8.2
-1 6 9 79.19 12
0 -6 -9 5.9 8.7
0 -6 -9 29.1 8.1
0 -6 -9 19.9 10.9
0 6 9 4.2 11.9
0 6 9 16.5 8.4
-1 -6 -9 4.6 8.4
-1 -6 -9 5.4 9.1
-1 -6 -9 -8.6 11.6
1 6 9 12.5 13.8
1 6 9 3.2 8.4
-2 -6 -9 28.3 9.5
-2 -6 -9 15.5 14.2
-2 -6 -9 22.4 10.2
2 6 9 -6 16.3
2 6 9 9.2 9.2
-3 -6 -9 21.8 11.8
3 6 9 -16.4 19.2
3 6 9 1.3 10.5
-4 -6 -9 -8 11.5
-4 -6 -9 11.2 13.6
4 6 9 12.7 11.7
4 6 9 -0.9 24
8 -7 -9 -27.4 19
-8 7 9 3.5 9.2
-8 7 9 30.1 11
7 -7 -9 22.9 17.4
7 -7 -9 17.9 16.7
-7 7 9 42.4 9
-7 7 9 29.3 10.3
6 -7 -9 1.3 14.1
6 -7 -9 -21.7 13.8
-6 7 9 18.7 8.4
-6 7 9 14.5 7.2
5 -7 -9 -4.8 12
5 -7 -9 4.1 13.6
-5 7 9 12 6.4
-5 7 9 20.2 8.1
4 -7 -9 -16.6 11.5
4 -7 -9 0.8 12.1
-4 7 9 -6.1 7.5
-4 7 9 -9.1 6
3 -7 -9 45.4 12.3
3 -7 -9 15.2 10.4
-3 7 9 42.8 6.1
-3 7 9 49 8.6
2 -7 -9 116.39 18.5
2 -7 -9 50.69 12.2
-2 7 9 66.99 10.2
-2 7 9 79.49 9.5
1 -7 -9 6.2 10.1
1 -7 -9 10.7 8.3
1 -7 -9 -3.2 11.7
-1 7 9 11.2 8.3
-1 7 9 1.6 5.1
0 -7 -9 51.79 9.5
0 -7 -9 19.9 12.4
0 -7 -9 59.49 12.1
0 7 9 41.4 9.4
0 7 9 27.8 14.6
-1 -7 -9 56.19 10.9
-1 -7 -9 50.69 14.2
-1 -7 -9 61.99 12.4
1 7 9 35.5 16.8
1 7 9 29.7 10.8
-2 -7 -9 23.5 11.4
-2 -7 -9 -7.2 15.3
-2 -7 -9 20.6 11.2
2 7 9 24.8 19.8
2 7 9 6.7 10.5
-3 -7 -9 17.3 13.5
-3 -7 -9 25.1 11.9
3 7 9 0.9 23.9
3 7 9 33.2 12.9
8 -8 -9 -2.5 20.4
-8 8 9 15 10.6
-8 8 9 16.9 11.9
7 -8 -9 -14.4 17
7 -8 -9 -9.9 17.6
-7 8 9 -15.1 10.2
-7 8 9 -2 9.1
6 -8 -9 5.6 14.9
6 -8 -9 -32.8 15.8
-6 8 9 19.5 8.3
-6 8 9 -3.3 9.3
5 -8 -9 -2.1 14.4
5 -8 -9 14.5 16.1
-5 8 9 -4.3 9.1
-5 8 9 -2.2 7.5
4 -8 -9 28.3 13
4 -8 -9 17.3 12
-4 8 9 13.3 9.9
-4 8 9 16.4 7.3
3 -8 -9 45.4 13.2
3 -8 -9 81.59 15.8
-3 8 9 43.2 7.7
2 -8 -9 36.8 12.9
2 -8 -9 63.19 13.2
-2 8 9 30.8 6.7
-2 8 9 56.09 11.1
1 -8 -9 25 13.8
1 -8 -9 35.4 8.5
1 -8 -9 34 13.1
-1 8 9 30 7.1
-1 8 9 17.6 10.7
0 -8 -9 23.1 11.8
0 -8 -9 -2.1 13.4
0 -8 -9 20.7 9.1
0 8 9 3.9 16.8
0 8 9 1.8 10.6
-1 -8 -9 -0.9 11.9
-1 -8 -9 4.9 10.2
-1 -8 -9 27.6 16.1
1 8 9 20.8 11.3
1 8 9 -6 21
-2 -8 -9 28.6 11.9
-2 -8 -9 41.2 14.1
-2 -8 -9 61.79 19.1
2 8 9 40.2 24.4
2 8 9 27.8 13
7 -9 -9 12.2 17.8
7 -9 -9 -24 20.3
-7 9 9 -5.6 10.3
-7 9 9 14.9 12
6 -9 -9 20.4 18.3
6 -9 -9 38 17
-6 9 9 10.3 8.9
-6 9 9 -14.1 10.6
5 -9 -9 33.9 15.5
5 -9 -9 24.4 15.6
-5 9 9 12.8 8.5
-5 9 9 -10.1 10.6
4 -9 -9 29.5 14.3
4 -9 -9 58.69 15.5
-4 9 9 30 8.6
-4 9 9 10.5 10.6
3 -9 -9 11.7 14.6
3 -9 -9 28.1 14.2
-3 9 9 -7 10.1
2 -9 -9 53.99 14
2 -9 -9 9.8 14.4
-2 9 9 24.6 10.8
-2 9 9 1.5 7
1 -9 -9 8.8 14.9
1 -9 -9 40.9 13.8
-1 9 9 14.2 11.8
0 -9 -9 -10 16.6
0 -9 -9 33.3 13.5
0 9 9 -14.3 21.7
0 9 9 -13.8 11.8
4 -10 -9 12.3 16.8
-4 10 9 8 12.4
-4 10 9 9.7 10.1
3 -10 -9 51.19 16.6
3 -10 -9 20 16.8
-3 10 9 9.5 12.8
-3 10 9 -7.4 8.3
2 -10 -9 7.6 15.2
2 -10 -9 24.7 17.5
-2 10 9 -10.7 13
0 11 -10 10 15.4
0 11 -10 -0.9 22.2
0 11 -10 10.6 12.8
0 -11 10 9.6 16.1
-1 11 -10 27.4 15.4
-1 11 -10 -4 11.7
1 -11 10 -20.1 14.6
-2 11 -10 17.5 10.7
-2 11 -10 45.8 17.9
2 -11 10 30.9 15.9
-3 11 -10 44.2 10.6
-3 11 -10 83.39 18.6
3 -11 10 26.1 15.3
2 10 -10 -3 11.7
2 10 -10 -31.4 33.1
2 10 -10 -9.1 25.4
-2 -10 10 -1.2 15.1
-2 -10 10 -12.3 8
1 10 -10 11.1 11.7
1 10 -10 1.6 22.1
1 10 -10 17.4 12.6
-1 -10 10 -7.7 7.9
-1 -10 10 -20.3 12.7
0 10 -10 31.1 22.4
0 10 -10 33.9 11.3
0 10 -10 26.7 13.7
0 -10 10 48.2 13.2
0 -10 10 37.3 8.9
-1 10 -10 14.6 10
-1 10 -10 -17.9 20.6
1 -10 10 3.7 12.5
-2 10 -10 25.4 9.3
2 -10 10 -1 12.2
-3 10 -10 5 8.4
3 -10 10 3.4 12.3
-4 10 -10 8.5 8.9
4 -10 10 -6.6 12.3
-5 10 -10 32.7 9.1
5 -10 10 34.3 13.9
4 9 -10 -1.8 15.3
4 9 -10 -14.9 29
4 9 -10 15.3 43.2
3 9 -10 5 12
3 9 -10 15.4 25.8
3 9 -10 6.8 13.4
3 9 -10 1 36.1
-3 -9 10 2.7 7.7
-3 -9 10 6.7 13.4
2 9 -10 -8.9 11.4
2 9 -10 -13.3 20.2
2 9 -10 56.79 33.1
2 9 -10 10.2 12.3
-2 -9 10 17 7.7
-2 -9 10 18.2 11.9
1 9 -10 52.09 20.4
1 9 -10 40.4 10.9
-1 -9 10 55.09 7.8
-1 -9 10 49.7 12.1
0 9 -10 73.19 22.2
0 9 -10 89.39 11.8
0 -9 10 99.69 14.1
0 -9 10 87.79 11.3
-1 9 -10 18.8 8.4
-1 9 -10 1.7 16.6
1 -9 10 -6.3 9.7
1 -9 10 12.8 6.5
-2 9 -10 25.8 8.6
-2 9 -10 -24.6 14.9
2 -9 10 34.6 10.3
-3 9 -10 30.1 8.6
3 -9 10 44.9 11.5
-4 9 -10 68.09 9.7
4 -9 10 81.59 12.8
-5 9 -10 -2.1 7.7
5 -9 10 -5.3 10.8
-6 9 -10 2.6 8.8
6 -9 10 -13 12.1
5 8 -10 -0.2 39.8
5 8 -10 57.49 31.5
-5 -8 10 16 9.1
4 8 -10 48.7 36.1
4 8 -10 -14.2 23.8
-4 -8 10 -6.4 7.6
3 8 -10 12.5 11.5
3 8 -10 14.1 12.6
3 8 -10 24 21.2
3 8 -10 60.19 31.8
-3 -8 10 31.1 8.3
-3 -8 10 2.3 10.2
2 8 -10 34 18.9
2 8 -10 11.4 22.4
2 8 -10 20.7 10.7
-2 -8 10 1.3 6.3
-2 -8 10 10.7 10.2
1 8 -10 -7.3 9.9
1 8 -10 -30.2 17.3
1 8 -10 29.6 17.9
1 8 -10 7.7 17.2
-1 -8 10 0.7 5.9
-1 -8 10 6.6 9.2
0 8 -10 115.59 15.8
0 8 -10 131.59 23.7
0 -8 10 138.99 11.7
0 -8 10 132.29 15.3
-1 8 -10 -0.3 13.6
-1 8 -10 9.6 8.2
1 -8 10 -2.1 8.6
1 -8 10 -1.7 5.9
-2 8 -10 -21.3 13.6
-2 8 -10 9.5 7.4
2 -8 10 -10.7 5.5
2 -8 10 -2.1 8.2
-3 8 -10 113.19 20.5
-3 8 -10 147.99 14
3 -8 10 180.08 16.8
-4 8 -10 30.4 7.2
-4 8 -10 19.8 11.4
4 -8 10 23.2 8.9
-5 8 -10 5.3 7.5
-5 8 -10 21.1 10
5 -8 10 10.2 10
-6 8 -10 3.6 7.6
6 -8 10 8.5 10.5
-7 8 -10 -9.3 8
7 -8 10 19.4 12.2
6 7 -10 3.7 36.9
6 7 -10 21 33.9
5 7 -10 3.5 26
5 7 -10 -9.2 18.1
5 7 -10 27.6 32.8
-5 -7 10 9.1 7.6
4 7 -10 -19.3 15.1
4 7 -10 33.2 24.8
4 7 -10 -6.4 28.2
-4 -7 10 -13.9 8.7
-4 -7 10 -15 6.7
3 7 -10 13.2 18.3
3 7 -10 -10 23.3
3 7 -10 0.8 12.5
-3 -7 10 -13.1 8.1
-3 -7 10 0.9 6.4
2 7 -10 9.1 17.5
2 7 -10 2.8 11.4
2 7 -10 -2.8 17.6
-2 -7 10 6.8 7.1
-2 -7 10 -7.6 6
1 7 -10 19.6 16.4
1 7 -10 -1.7 13
1 7 -10 0.8 8.7
-1 -7 10 1.9 5.2
-1 -7 10 -1.5 6.6
0 7 -10 124.79 15.1
0 7 -10 121.59 17.1
0 -7 10 118.79 12.4
0 -7 10 88.09 10.1
-1 7 -10 80.99 15
-1 7 -10 104.99 14
1 -7 10 91.49 12.4
1 -7 10 110.09 9.8
-2 7 -10 279.97 24
-2 7 -10 372.16 18.8
2 -7 10 351.36 19.5
2 -7 10 375.16 16.6
-3 7 -10 102.19 15.3
-3 7 -10 87.09 12.1
3 -7 10 121.79 13.4
-4 7 -10 45.4 8.2
-4 7 -10 15 11
4 -7 10 20.2 8.7
4 -7 10 36.1 8.4
-5 7 -10 10.5 6.5
5 -7 10 -11.8 10.7
5 -7 10 2.9 9.7
-6 7 -10 49.2 8.4
-6 7 -10 95.79 16.7
6 -7 10 56.29 11.6
-7 7 -10 68.69 9.2
7 -7 10 45.6 12.1
6 6 -10 52.29 28.3
6 6 -10 -0.8 21.4
6 6 -10 17.7 30.8
-6 -6 10 32.3 8.3
5 6 -10 20 22.5
5 6 -10 -28.1 24.8
5 6 -10 -13.9 16.1
-5 -6 10 8.6 6.8
4 6 -10 2.3 13.2
4 6 -10 1.3 17.4
4 6 -10 25.4 23.9
-4 -6 10 6.8 6.2
-4 -6 10 10.3 7.2
3 6 -10 -6.1 10.6
3 6 -10 3.8 15.8
3 6 -10 6.3 17.7
-3 -6 10 6.1 5.3
-3 -6 10 5.4 6.6
2 6 -10 8.4 12.6
2 6 -10 9.4 15.1
-2 -6 10 10.5 4.9
-2 -6 10 1.7 6.1
1 6 -10 73.29 14.4
1 6 -10 52.09 13.8
-1 -6 10 62.39 7.9
-1 -6 10 82.29 8.5
0 6 -10 41.2 11.5
0 -6 10 23.8 6.2
0 -6 10 27.2 4.9
-1 6 -10 26.8 12
-1 6 -10 56.59 8
1 -6 10 31.8 6.4
1 -6 10 45.6 5.7
-2 6 -10 18.5 11.5
-2 6 -10 17.8 5.9
2 -6 10 13.3 5.5
2 -6 10 16.2 4.5
-3 6 -10 4.3 5.3
-3 6 -10 18.5 10.8
3 -6 10 3.5 6
3 -6 10 4.8 4.9
-4 6 -10 36.3 11.2
-4 6 -10 47.3 7.4
4 -6 10 28.5 8
4 -6 10 29.6 8.6
-5 6 -10 106.19 10.4
-5 6 -10 124.69 14.7
5 -6 10 103.89 12.9
5 -6 10 110.79 12.8
-6 6 -10 157.08 18
-6 6 -10 168.18 14.1
6 -6 10 123.49 16.1
6 -6 10 125.69 16.8
-7 6 -10 23.3 7.7
7 -6 10 35.8 18.3
7 -6 10 23.8 10.3
7 5 -10 16.6 30.1
7 5 -10 31.7 29.4
7 5 -10 -19.3 21.6
-7 -5 10 3.7 8.3
-7 -5 10 5.1 11.1
6 5 -10 11.2 18.2
6 5 -10 -7 21.8
6 5 -10 -25.3 24.8
-6 -5 10 -1.5 6.9
5 5 -10 -17.5 19.2
5 5 -10 21.9 22.5
5 5 -10 -1.9 13.9
-5 -5 10 -2.3 6.8
-5 -5 10 3.4 6.4
4 5 -10 182.78 21.6
4 5 -10 197.68 28.5
4 5 -10 188.98 27.4
-4 -5 10 150.68 11.3
-4 -5 10 167.78 12
3 5 -10 -2.7 11.8
3 5 -10 -16.5 14.2
3 5 -10 10.3 9.1
-3 -5 10 -6.6 4.4
-3 -5 10 -6.4 5.7
2 5 -10 43.1 11.9
2 5 -10 43.4 13
-2 -5 10 47.6 5.8
-2 -5 10 46.7 7.1
1 5 -10 320.77 21.7
1 5 -10 286.67 21.4
-1 -5 10 337.87 13.7
-1 -5 10 322.27 15.2
0 5 -10 230.38 18.5
0 -5 10 211.28 12.7
0 -5 10 211.48 10.7
-1 5 -10 22.9 10.9
-1 5 -10 4 5.5
1 -5 10 7.4 5.3
1 -5 10 11.8 3.9
-2 5 -10 -1.8 10.2
-2 5 -10 16.8 5.7
2 -5 10 -2 3.9
2 -5 10 -0.5 4.8
-3 5 -10 3.1 5.1
-3 5 -10 -1.4 9.9
3 -5 10 6.7 5.6
3 -5 10 1.3 4.3
-4 5 -10 8.2 5.2
-4 5 -10 16.1 8.9
4 -5 10 12.7 6.7
4 -5 10 7.4 8
-5 5 -10 176.38 15.5
-5 5 -10 149.99 11.7
5 -5 10 151.08 14.9
5 -5 10 138.69 17.7
-6 5 -10 76.19 8.1
-6 5 -10 114.89 16.5
6 -5 10 103.49 15.1
6 -5 10 63.79 10.3
-7 5 -10 24.5 7.1
7 -5 10 13.9 17
7 -5 10 34.6 10.3
7 4 -10 -9.8 22.7
7 4 -10 1.6 20.6
7 4 -10 -9.6 25.1
-7 -4 10 -2.8 9.2
-7 -4 10 6.6 7.9
6 4 -10 17 21.8
6 4 -10 24.5 20.7
6 4 -10 28.7 16
-6 -4 10 28.9 7.2
5 4 -10 75.89 15
5 4 -10 44 20.9
5 4 -10 72.09 19.6
-5 -4 10 69.59 9.5
-5 -4 10 51.59 7.3
4 4 -10 46.7 13.4
4 4 -10 36.7 16
4 4 -10 33.9 10.3
-4 -4 10 38 5.5
-4 -4 10 32.7 6.3
3 4 -10 256.47 13.1
3 4 -10 272.07 21.7
3 4 -10 236.18 17.3
3 4 -10 272.77 24.9
-3 -4 10 261.57 13.3
-3 -4 10 260.47 12.2
2 4 -10 69.29 13.6
2 4 -10 74.79 12.7
-2 -4 10 68.19 7.2
-2 -4 10 69.09 8.6
1 4 -10 60.39 10.8
1 4 -10 81.19 12.7
-1 -4 10 55.49 7.9
-1 -4 10 58.99 6.4
0 4 -10 53.09 11.3
0 -4 10 62.99 8
0 -4 10 54.89 6.3
-1 4 -10 2.3 9.2
1 -4 10 14.8 3.7
1 -4 10 5.3 4.7
-2 4 -10 -4.1 4.9
-2 4 -10 5.2 10.6
2 -4 10 0 3.6
2 -4 10 0.9 4.7
-3 4 -10 88.09 14.8
-3 4 -10 65.79 8.7
3 -4 10 66.69 7.2
3 -4 10 57.19 9.2
-4 4 -10 121.69 13.6
-4 4 -10 123.49 9.8
4 -4 10 90.49 14
4 -4 10 94.19 10.9
-5 4 -10 -3.1 4.6
-5 4 -10 8.2 8.7
5 -4 10 7.3 10
5 -4 10 3.8 6.3
-6 4 -10 51.69 12.1
-6 4 -10 26.8 5.4
6 -4 10 28.1 9.2
6 -4 10 24.5 13.4
-7 4 -10 28.5 12.9
7 -4 10 -11.7 17.4
7 -4 10 2.4 9.5
8 3 -10 -2.7 27.6
8 3 -10 13.2 23.8
8 3 -10 48.7 25
-8 -3 10 19.7 8.7
-8 -3 10 -0.8 10.5
7 3 -10 18.6 19.7
7 3 -10 75.79 25.1
7 3 -10 72.69 22.7
-7 -3 10 50.89 8.2
6 3 -10 -8.1 19.1
6 3 -10 5.4 15.6
6 3 -10 -16.4 14.1
-6 -3 10 -7.8 6.2
5 3 -10 23.6 17.2
5 3 -10 9.2 12.5
5 3 -10 -1.4 11.2
-5 -3 10 6.1 5.6
-5 -3 10 12.4 4.9
4 3 -10 20 10.9
4 3 -10 12.6 13.5
4 3 -10 15.1 8.7
-4 -3 10 13.6 4.4
-4 -3 10 7 4.9
3 3 -10 41.9 10.2
3 3 -10 31 12.3
-3 -3 10 41.1 5.8
-3 -3 10 31.8 4.8
2 3 -10 -2.3 9.2
2 3 -10 20.7 8.7
-2 -3 10 11.9 3.8
-2 -3 10 6.8 4.4
1 3 -10 7.7 7.6
1 3 -10 19.2 7.9
-1 -3 10 6.5 3.2
-1 -3 10 2.7 4
0 3 -10 15.8 8.6
0 3 -10 21.3 7.7
0 -3 10 4.9 11.1
0 -3 10 15.4 3.8
0 -3 10 16.2 4.7
-1 3 -10 21.3 9.9
1 -3 10 30.9 4.4
1 -3 10 22.4 4.7
-2 3 -10 0.8 4.8
-2 3 -10 26.9 10.5
2 -3 10 1.6 3.4
2 -3 10 3.9 4.6
-3 3 -10 40.9 10.5
-3 3 -10 60.79 7.8
3 -3 10 34 7.3
3 -3 10 47.8 8.2
3 -3 10 51.99 7.4
3 -3 10 53.09 6.3
-4 3 -10 80.19 8.6
-4 3 -10 80.09 12.5
4 -3 10 78.79 10.1
4 -3 10 63.49 11.4
-5 3 -10 4.7 4.1
-5 3 -10 14.5 9.3
5 -3 10 -1.9 11.3
5 -3 10 5.7 6.5
-6 3 -10 6.6 4.7
-6 3 -10 5.9 10.5
6 -3 10 -2.1 7.6
6 -3 10 -16.2 13.6
7 -3 10 23.8 18.9
7 -3 10 24.3 9.5
8 2 -10 9.4 20.1
8 2 -10 -11 19.1
8 2 -10 13.6 24.7
-8 -2 10 17.2 8.3
7 2 -10 -12.6 15.8
7 2 -10 -17.3 16.3
7 2 -10 3.2 20.9
-7 -2 10 -0.5 6.4
6 2 -10 17 17.9
6 2 -10 25.9 14.9
6 2 -10 13.5 12.7
-6 -2 10 11.9 5.8
5 2 -10 -8.9 13.9
5 2 -10 1.9 9.3
5 2 -10 12.4 10.3
-5 -2 10 -0.9 5.2
-5 -2 10 4.4 4.2
4 2 -10 49.5 9.8
4 2 -10 67.99 12.2
4 2 -10 56.79 13.8
-4 -2 10 48.5 6.6
-4 -2 10 51.49 6.2
3 2 -10 4.9 9.8
3 2 -10 -2.9 7.8
-3 -2 10 2.5 3.5
-3 -2 10 7.8 4.3
2 2 -10 97.39 14.7
2 2 -10 103.69 13.6
-2 -2 10 67.19 6.4
-2 -2 10 78.09 7.8
1 2 -10 18 8.4
1 2 -10 14.1 7.6
-1 -2 10 12.5 3.2
-1 -2 10 10.7 4.2
0 2 -10 91.89 12.3
0 2 -10 82.69 12
0 -2 10 75.39 6.2
0 -2 10 77.09 7.9
-1 2 -10 -0.5 6.7
-1 2 -10 9.4 9.2
1 -2 10 -2.3 2.8
1 -2 10 -6.5 10
1 -2 10 4.9 4.3
-2 2 -10 19.3 9.2
2 -2 10 11.3 5
2 -2 10 3.7 3.2
-3 2 -10 128.69 12.5
-3 2 -10 116.79 11
-3 2 -10 118.49 8.8
3 -2 10 136.19 7.6
3 -2 10 116.29 10.7
3 -2 10 127.19 10.5
3 -2 10 131.99 13.4
-4 2 -10 52.79 7.1
-4 2 -10 66.79 10.2
4 -2 10 43.8 7.3
4 -2 10 58.49 10.7
-5 2 -10 33.2 10.1
-5 2 -10 24.2 4.2
5 -2 10 14.8 11.7
5 -2 10 13.3 6.8
-6 2 -10 39.4 10.9
6 -2 10 5.2 8.2
6 -2 10 14.2 14.8
-7 2 -10 17.3 11.8
7 -2 10 1.5 19.1
7 -2 10 3 8.1
9 1 -10 17.3 21.9
9 1 -10 40 23.4
9 1 -10 41.6 28.4
-9 -1 10 -4.2 8.7
8 1 -10 -7.6 22.6
8 1 -10 2.3 17.9
8 1 -10 6.3 18.8
-8 -1 10 -5.6 7.2
7 1 -10 10.1 14.1
7 1 -10 -1.2 14.5
7 1 -10 35.6 18.8
-7 -1 10 14.3 6.5
6 1 -10 72.49 19.7
6 1 -10 72.39 14.5
6 1 -10 66.39 14.7
-6 -1 10 83.49 9.7
5 1 -10 97.29 17
5 1 -10 98.39 16.4
5 1 -10 84.89 13
-5 -1 10 77.29 8.1
-5 -1 10 76.49 8.9
4 1 -10 436.26 24.6
4 1 -10 436.36 20.9
4 1 -10 491.25 27.4
-4 -1 10 453.35 17.5
-4 -1 10 452.85 17.1
3 1 -10 205.68 12.3
3 1 -10 206.78 18.5
3 1 -10 224.88 16.6
-3 -1 10 210.68 10.1
-3 -1 10 188.68 10.9
-3 -1 10 197.98 13.7
2 1 -10 11 8.1
2 1 -10 19.7 8.9
-2 -1 10 23.1 3.7
-2 -1 10 11.4 4.2
1 1 -10 48.8 9.6
1 1 -10 40.9 9.6
-1 -1 10 36.8 5.2
-1 -1 10 30.3 4.8
0 1 -10 27.8 8.2
0 1 -10 27.5 9.3
0 -1 10 23.4 3.4
-1 1 -10 19.3 7.8
-1 1 -10 27.8 9.4
1 -1 10 22 3.4
1 -1 10 33.1 5.8
-2 1 -10 33.8 6.9
-2 1 -10 40.9 10
2 -1 10 27.8 5.2
2 -1 10 39.8 6.7
2 -1 10 35.6 7.2
2 -1 10 40.4 4.5
-3 1 -10 -3.2 7.4
-3 1 -10 6.1 5.5
-3 1 -10 3.7 3.9
3 -1 10 18.5 8.2
3 -1 10 0.3 5.4
3 -1 10 14.6 3.3
-4 1 -10 431.06 21.7
-4 1 -10 433.86 17.5
-4 1 -10 420.96 14.8
4 -1 10 417.86 18.9
4 -1 10 404.26 24.2
-5 1 -10 99.29 15.4
-5 1 -10 97.29 10.8
5 -1 10 65.79 8.8
5 -1 10 84.09 14.9
-6 1 -10 19.5 8
-6 1 -10 25.9 11.1
6 -1 10 9.6 8
6 -1 10 -6.1 15.6
-7 1 -10 18.7 11.8
7 -1 10 2.7 19.6
9 0 -10 14 26.2
9 0 -10 -20 20.9
9 0 -10 12.8 22.2
-9 0 10 9.2 8.6
8 0 -10 -20.6 17
8 0 -10 1 18.2
8 0 -10 -0.2 20.8
-8 0 10 3.6 7
7 0 -10 35.5 17.6
7 0 -10 35.8 16.4
7 0 -10 62.79 16.2
-7 0 10 22.5 6.7
6 0 -10 25.6 11.7
6 0 -10 30.5 15.8
6 0 -10 42 12.1
-6 0 10 24.2 5.9
-6 0 10 25.6 5.5
5 0 -10 142.99 15.7
5 0 -10 108.59 19.5
5 0 -10 115.19 16.6
-5 0 10 125.59 9.4
-5 0 10 128.79 10
4 0 -10 75.09 13
4 0 -10 56.29 9.1
4 0 -10 84.29 14.3
-4 0 10 64.39 6.9
-4 0 10 54.99 7.8
3 0 -10 -5.9 8.1
3 0 -10 -2.4 7.1
3 0 -10 -0.6 5.5
-3 0 10 -14.7 6.9
-3 0 10 -9.2 4
-3 0 10 -1.8 3.1
2 0 -10 20.9 8.9
2 0 -10 21.9 8.3
2 0 -10 11.2 4.5
-2 0 10 12.5 4.3
-2 0 10 22.3 3.6
-2 0 10 18.4 5.8
1 0 -10 70.49 10.9
1 0 -10 78.99 11.5
-1 0 10 60.59 7.3
-1 0 10 51.49 5.6
0 0 -10 8.1 9.2
0 0 -10 16 7.5
0 0 10 -1.5 4.5
0 0 10 7.4 3.9
0 0 10 3.2 2.8
-1 0 -10 24.2 7.6
-1 0 -10 18.4 9.2
1 0 10 15 4.6
1 0 10 19.7 6.3
1 0 10 16.2 3.2
1 0 10 6.2 5
-2 0 -10 2.5 6.3
-2 0 -10 5.3 6.3
-2 0 -10 0 4
2 0 10 5.8 4.8
2 0 10 2.3 3
2 0 10 0.9 7
2 0 10 7.4 7
-3 0 -10 76.99 10.7
-3 0 -10 66.19 10
3 0 10 77.39 9.7
3 0 10 49.99 10.2
-4 0 -10 11.1 6.4
-4 0 -10 15.6 7.7
4 0 10 14.5 6.8
4 0 10 14 10.8
-5 0 -10 47.8 8.4
-5 0 -10 84.69 14.8
5 0 10 58.49 8.8
5 0 10 50.79 15.1
-6 0 -10 -1.4 9.2
-6 0 -10 2.5 10.8
6 0 10 7.8 8.4
6 0 10 0.9 18.3
-7 0 -10 12.2 12
-7 0 -10 -0.6 10.6
7 0 10 5.5 22.1
9 -1 -10 -19.9 22.9
9 -1 -10 -1.9 21.1
9 -1 -10 -7.2 20.8
-9 1 10 2.4 8.7
8 -1 -10 -14.3 16.3
8 -1 -10 -0.6 16.8
8 -1 -10 -25.3 18.7
-8 1 10 1.2 7.1
7 -1 -10 -12.9 13.3
7 -1 -10 -6 15.7
7 -1 -10 -10.3 12.5
-7 1 10 -1.5 5.9
6 -1 -10 -17.4 13.9
6 -1 -10 1.2 10.7
6 -1 -10 6 10.7
-6 1 10 2.3 5.7
-6 1 10 -11.2 4.8
5 -1 -10 940.81 42.1
5 -1 -10 935.61 38.1
5 -1 -10 977.1 37.3
-5 1 10 930.21 30.8
-5 1 10 964.5 31.1
4 -1 -10 74.09 13
4 -1 -10 55.99 10.6
4 -1 -10 53.29 9.1
-4 1 10 51.79 6.9
-4 1 10 48.6 6.4
3 -1 -10 10.6 9.1
3 -1 -10 -6.4 7.1
3 -1 -10 -1.4 5.4
-3 1 10 1.8 4.4
-3 1 10 -1.5 8
-3 1 10 -2.8 3.4
2 -1 -10 124.19 13.6
2 -1 -10 118.99 10.3
2 -1 -10 115.59 15.2
-2 1 10 98.39 11.2
-2 1 10 100.59 7.2
-2 1 10 102.79 9
1 -1 -10 16.4 8.7
1 -1 -10 4.3 4.4
1 -1 -10 1.8 7.9
-1 1 10 7.6 5.7
-1 1 10 6.6 4.4
-1 1 10 3.7 3.1
0 -1 -10 4.1 8
0 -1 -10 -0.3 8.5
0 -1 -10 4.5 5
0 1 10 3.2 3.3
0 1 10 5 4.3
0 1 10 -1.8 5.8
0 1 10 4.1 5.2
-1 -1 -10 17.8 4.2
-1 -1 -10 19.9 8.6
-1 -1 -10 14.2 8
1 1 10 16.5 6.4
1 1 10 26.5 5.7
1 1 10 24.3 3.4
1 1 10 5.7 7.6
-2 -1 -10 1006.9 35.5
-2 -1 -10 1019.1 34.1
2 1 10 960.3 36.9
2 1 10 991.2 33.7
-3 -1 -10 113.89 11.4
-3 -1 -10 124.29 13.8
3 1 10 103.69 17.3
3 1 10 117.79 11.1
4 1 10 41.3 13.7
4 1 10 42.7 8.1
-5 -1 -10 9.8 8.7
-5 -1 -10 26.3 9.3
5 1 10 -6.8 15.3
5 1 10 3.6 7.8
-6 -1 -10 -0.1 9.8
-6 -1 -10 19.9 10.7
6 1 10 33 20.5
6 1 10 -1.4 8.5
-7 -1 -10 -2.7 12.3
-7 -1 -10 28.2 12.9
7 1 10 5.9 23.6
7 1 10 -2.1 20.1
9 -2 -10 28.6 20.9
9 -2 -10 -2.2 19.6
9 -2 -10 -11.1 22.1
-9 2 10 -10.5 8.2
8 -2 -10 27.8 17.2
8 -2 -10 35.6 20.5
8 -2 -10 61.89 18.1
-8 2 10 39.4 8.4
7 -2 -10 10.8 14.4
7 -2 -10 -10.8 12.7
7 -2 -10 -8.6 15.4
-7 2 10 3.6 6.6
-7 2 10 -2.1 6.2
6 -2 -10 -9.8 13.8
6 -2 -10 -22.1 10.3
6 -2 -10 -9.1 10.3
-6 2 10 -1.2 5.1
-6 2 10 2.6 5.8
5 -2 -10 1.3 8.6
5 -2 -10 -4.5 9.7
5 -2 -10 12.5 11.2
-5 2 10 -1.6 5.1
-5 2 10 3.7 4.1
4 -2 -10 28.8 10.6
4 -2 -10 24.3 8.7
4 -2 -10 27.1 8.1
-4 2 10 16.1 5.4
-4 2 10 14.2 4.1
3 -2 -10 28.6 9.8
3 -2 -10 19.1 7
3 -2 -10 17.8 8.6
-3 2 10 18.6 4.1
-3 2 10 19.2 4.9
2 -2 -10 12.9 5.6
2 -2 -10 17.7 10.3
2 -2 -10 23.4 8.9
-2 2 10 13.3 3.6
-2 2 10 9.4 4.7
1 -2 -10 3.7 8
1 -2 -10 5.4 5.1
1 -2 -10 5.2 8.5
-1 2 10 -5.9 4
-1 2 10 -3.4 3.2
0 -2 -10 142.39 11.6
0 -2 -10 138.09 14.3
0 -2 -10 132.99 13.8
0 2 10 144.89 7.9
0 2 10 134.29 12.2
0 2 10 117.59 9.9
-1 -2 -10 1244.28 42.3
-1 -2 -10 1180.78 36.1
-1 -2 -10 1385.66 41.3
-1 -2 -10 1236.78 42.3
1 2 10 1311.97 41.4
1 2 10 1333.47 36.4
1 2 10 1348.37 44.4
-2 -2 -10 104.39 13
-2 -2 -10 97.99 12.1
2 2 10 100.09 10.5
2 2 10 101.99 16.4
-3 -2 -10 13.4 7
-3 -2 -10 1.4 7.7
3 2 10 2.4 10.9
3 2 10 -1 6.8
-4 -2 -10 7.3 8.2
-4 -2 -10 -8.7 8.4
4 2 10 -11.4 13.7
4 2 10 2.5 7.4
-5 -2 -10 3.8 9.2
-5 -2 -10 6.4 9.9
5 2 10 -5.1 8.7
5 2 10 -2.4 17.8
-6 -2 -10 14.1 11.7
-6 -2 -10 1.8 11
6 2 10 14.3 21.8
9 -3 -10 48.2 21.1
9 -3 -10 -2 19.8
9 -3 -10 -5.1 21.2
-9 3 10 8.6 9.7
8 -3 -10 -13.7 18.7
8 -3 -10 -1.1 15.5
8 -3 -10 -11.2 16.2
-8 3 10 1.1 7.7
7 -3 -10 33.5 13.5
7 -3 -10 32.6 16.5
7 -3 -10 -1.4 15.4
-7 3 10 22.2 7.3
-7 3 10 36.9 7.2
6 -3 -10 3.5 14.3
6 -3 -10 19.1 11.7
6 -3 -10 20.6 11.6
-6 3 10 23.3 6.1
-6 3 10 6.2 5.7
5 -3 -10 106.49 16.2
5 -3 -10 94.69 14.7
5 -3 -10 88.29 15.2
-5 3 10 106.19 10.1
-5 3 10 95.29 9.1
4 -3 -10 9.5 8.6
4 -3 -10 33.8 11.8
4 -3 -10 27 9
-4 3 10 19.7 4.4
-4 3 10 8.6 5
3 -3 -10 -0.5 6.7
3 -3 -10 14.4 8.6
3 -3 -10 14.4 10.4
-3 3 10 -1.8 3.8
-3 3 10 -1.9 4.5
2 -3 -10 33.6 8.9
2 -3 -10 28.8 11.2
2 -3 -10 28.5 6.9
-2 3 10 25.2 4.5
-2 3 10 23.2 5.8
1 -3 -10 2.6 6
1 -3 -10 -3.7 7.3
1 -3 -10 -12 8.6
-1 3 10 1.9 4.7
-1 3 10 5.4 3.6
0 -3 -10 24.5 7.9
0 -3 -10 20.2 8.6
0 -3 -10 31.5 7.1
0 3 10 22 3.9
0 3 10 13.3 5.3
0 3 10 19.7 7.9
-1 -3 -10 -4.5 7.1
-1 -3 -10 2.3 7.4
-1 -3 -10 4.2 7.5
1 3 10 4.4 5.6
1 3 10 -1.4 8.3
-2 -3 -10 9.7 7.4
-2 -3 -10 4.4 7.3
2 3 10 -6.7 9.8
2 3 10 2.4 6.7
-3 -3 -10 5.5 8.7
-3 -3 -10 -3.3 8.2
3 3 10 -2.9 7.1
3 3 10 -10 12.4
-4 -3 -10 -1.7 9
-4 -3 -10 -2.6 9.1
4 3 10 -7.8 16.1
4 3 10 10.7 8.8
-5 -3 -10 6.3 10.7
-5 -3 -10 19 11.3
5 3 10 16.8 19.7
5 3 10 8.2 9.6
-6 -3 -10 40.6 13.8
-6 -3 -10 17.3 12.3
6 3 10 25.4 24.9
9 -4 -10 -3.2 19.8
9 -4 -10 15.6 22.3
-9 4 10 6.9 9.2
8 -4 -10 17.9 21.1
8 -4 -10 14 17.3
-8 4 10 37.2 8.7
-8 4 10 40.6 8.6
7 -4 -10 65.19 14.5
7 -4 -10 32.7 16.7
7 -4 -10 72.39 18.4
-7 4 10 51.69 8.6
-7 4 10 42 7.8
6 -4 -10 178.08 25.7
6 -4 -10 250.87 20
6 -4 -10 251.47 23.4
-6 4 10 267.47 15.2
-6 4 10 239.28 14.7
5 -4 -10 96.59 16.3
5 -4 -10 102.69 15.6
5 -4 -10 102.89 17.3
-5 4 10 116.79 10.6
-5 4 10 124.19 11.2
4 -4 -10 12.6 9
4 -4 -10 14.7 8.7
4 -4 -10 27.1 12
-4 4 10 14.4 4.9
-4 4 10 7 5.3
3 -4 -10 12.5 11.3
3 -4 -10 30.8 8.5
3 -4 -10 21.2 8.5
-3 4 10 14.1 5.1
-3 4 10 22.4 4.9
2 -4 -10 182.28 14.2
2 -4 -10 192.48 14.9
2 -4 -10 194.38 18.6
-2 4 10 208.98 10.8
-2 4 10 190.48 12.4
1 -4 -10 518.05 22.9
1 -4 -10 496.95 21.6
1 -4 -10 483.95 24.3
-1 4 10 468.65 20.6
-1 4 10 526.35 17.6
0 -4 -10 53.69 9.4
0 -4 -10 64.69 9.6
0 -4 -10 35.4 9.7
0 4 10 34.7 4.9
0 4 10 42.9 7.1
0 4 10 50.59 10.6
-1 -4 -10 149.29 15.8
-1 -4 -10 159.78 14.4
1 4 10 146.89 12.8
1 4 10 139.49 18.3
-2 -4 -10 5.5 9.3
-2 -4 -10 12.1 8.8
2 4 10 -1.8 7
2 4 10 -2.6 11.3
-3 -4 -10 0.5 8.9
-3 -4 -10 13.7 9.7
3 4 10 12.2 16
3 4 10 -10.7 8.9
-4 -4 -10 -2.1 10.8
-4 -4 -10 0.2 10.6
4 4 10 1.4 18.4
4 4 10 -14 10.8
-5 -4 -10 20.5 12
-5 -4 -10 6.5 12.1
5 4 10 -23.5 21.9
9 -5 -10 -36.5 21.6
-9 5 10 3.3 9.5
8 -5 -10 16.5 18.1
8 -5 -10 -11.5 18.2
-8 5 10 -2.9 8.9
-8 5 10 -13.3 7.8
7 -5 -10 -24.9 15.6
7 -5 -10 -15.1 14.4
-7 5 10 -0.2 7.4
-7 5 10 -2.7 7.6
6 -5 -10 -16.1 13.6
6 -5 -10 -4.7 15.2
-6 5 10 -9.5 6
-6 5 10 -3.2 6.6
5 -5 -10 34.5 11.8
5 -5 -10 9.3 14.1
-5 5 10 28.1 7
-5 5 10 24.9 7.2
4 -5 -10 8.1 12
4 -5 -10 7.5 8.1
4 -5 -10 8.6 9.7
-4 5 10 7.9 6.3
-4 5 10 -0.2 4.9
3 -5 -10 18 11.4
3 -5 -10 14 8.6
3 -5 -10 24.6 7.6
-3 5 10 27.5 5.6
-3 5 10 25.1 7.1
2 -5 -10 -8.9 7.4
2 -5 -10 1.6 9.9
2 -5 -10 7.6 7
-2 5 10 4.8 4.7
-2 5 10 -1.1 5.6
1 -5 -10 131.39 15.3
1 -5 -10 151.58 13.4
1 -5 -10 109.79 16.1
-1 5 10 104.39 8.8
-1 5 10 105.99 11.8
0 -5 -10 2.4 9.1
0 -5 -10 29.7 8.8
0 -5 -10 18 10.8
0 5 10 11.1 9.9
0 5 10 4.3 4.8
0 5 10 12.3 7.1
-1 -5 -10 12.2 10.4
-1 -5 -10 31.8 10.3
-1 -5 -10 14.1 8.8
1 5 10 10.4 12
1 5 10 4.9 8.1
-2 -5 -10 18.7 9.7
-2 -5 -10 10.4 10
2 5 10 7.2 8.9
2 5 10 2.7 15
-3 -5 -10 20.4 10.7
-3 -5 -10 25.8 11
3 5 10 30.1 18.1
3 5 10 0.4 10.7
-4 -5 -10 46.7 12.3
-4 -5 -10 27.9 12.8
4 5 10 12.1 22.5
4 5 10 22.9 11.7
8 -6 -10 -0.4 17.9
8 -6 -10 -20 19.8
-8 6 10 -4.4 9.7
-8 6 10 0.7 8.9
7 -6 -10 -25.5 16.6
7 -6 -10 -17.8 17.4
-7 6 10 11.2 9
-7 6 10 -5.4 7.4
6 -6 -10 -9.8 13.3
6 -6 -10 7.3 14.9
-6 6 10 5.8 6.8
-6 6 10 -10.5 8.2
5 -6 -10 3.8 12
5 -6 -10 3.2 14
-5 6 10 19.1 6.9
-5 6 10 1.3 7.3
4 -6 -10 6.2 13.1
4 -6 -10 14.4 11.4
-4 6 10 8.4 7.4
-4 6 10 19.3 6.3
3 -6 -10 15.5 9.4
3 -6 -10 1.7 11.7
-3 6 10 0.3 5.3
-3 6 10 1.7 6.9
2 -6 -10 -3.6 9.3
2 -6 -10 21.9 8.7
2 -6 -10 7.1 11
-2 6 10 0.5 5.5
-2 6 10 2.7 7
1 -6 -10 35.4 11.8
1 -6 -10 38.1 12.1
-1 6 10 27.6 5.9
-1 6 10 26.6 8.3
0 -6 -10 86.69 15.4
0 -6 -10 49.7 13.1
0 6 10 49.3 9.9
0 6 10 43.2 14.3
-1 -6 -10 16.9 12.2
-1 -6 -10 5.5 9.6
-1 -6 -10 11.9 9.6
1 6 10 8.8 8.7
1 6 10 23.4 14.9
-2 -6 -10 8.2 10.3
-2 -6 -10 18.6 10.7
2 6 10 8.3 10.3
2 6 10 -1.2 17.3
-3 -6 -10 59.99 12.9
-3 -6 -10 31.6 12.5
3 6 10 40.8 22
3 6 10 -1.6 11.5
8 -7 -10 -28.6 19.2
8 -7 -10 -1.6 20.2
-8 7 10 -16.4 9.6
-8 7 10 -2 11.2
7 -7 -10 -13.6 16.9
7 -7 -10 -18.9 17.6
-7 7 10 12.9 10.4
-7 7 10 -13.5 8.1
6 -7 -10 17.1 16.6
6 -7 -10 -23.8 14.5
-6 7 10 12.2 7.8
-6 7 10 -3.9 9.1
5 -7 -10 -15 13.4
5 -7 -10 -17.5 13.2
-5 7 10 -7.1 7
-5 7 10 5.1 8.7
4 -7 -10 -1 11.5
4 -7 -10 -9.6 12.4
-4 7 10 9 9.1
-4 7 10 10.9 6.7
3 -7 -10 1.6 11.1
3 -7 -10 10 11.9
-3 7 10 4.7 6.1
-3 7 10 -2.5 9.4
2 -7 -10 10.6 11.8
2 -7 -10 34 13.1
-2 7 10 20.1 8.7
-2 7 10 28.7 6.4
1 -7 -10 48.3 11.9
1 -7 -10 9.5 12.6
-1 7 10 35.9 9.7
-1 7 10 23.5 6
0 -7 -10 11.6 13.1
0 -7 -10 12.6 10.9
0 -7 -10 3 9.2
0 7 10 -9.1 14.5
0 7 10 5.5 9.2
-1 -7 -10 39.8 15.2
-1 -7 -10 -1.3 10.4
-1 -7 -10 -3.3 10.6
1 7 10 30.2 18.5
1 7 10 -4.7 11
-2 -7 -10 12.7 12.4
-2 -7 -10 9.5 12
2 7 10 11.6 11.6
2 7 10 -7.5 21.2
7 -8 -10 -25.9 18.2
7 -8 -10 15.6 19.2
-7 8 10 10.3 11.9
-7 8 10 -1.6 9.3
6 -8 -10 -23.1 15.8
6 -8 -10 21 16.8
-6 8 10 3.1 10.8
-6 8 10 4.3 9
5 -8 -10 0.9 16.2
5 -8 -10 -24.9 14.4
-5 8 10 3 10
-5 8 10 24.2 8.7
4 -8 -10 13.8 14.5
4 -8 -10 -3 12.7
-4 8 10 0.7 9.7
3 -8 -10 37 15.1
3 -8 -10 27.9 14.7
-3 8 10 6.2 8.4
-3 8 10 16.9 9.8
2 -8 -10 4.2 14
2 -8 -10 1.7 12.6
-2 8 10 8.3 9.7
-2 8 10 5.2 7
1 -8 -10 -3.2 12.1
1 -8 -10 10.7 15.1
-1 8 10 3.9 10.7
0 -8 -10 41.8 10.8
0 -8 -10 18.1 15.4
0 -8 -10 38.5 13.2
0 8 10 16.8 11.8
0 8 10 2.3 18.2
-1 -8 -10 -15.5 12
-1 -8 -10 17.7 13.1
-1 -8 -10 -29.6 17.5
1 8 10 -4.7 22.5
1 8 10 -26.8 11.9
6 -9 -10 4.3 17.6
6 -9 -10 -11.5 18.8
-6 9 10 9.6 9.7
-6 9 10 -8.6 12.3
5 -9 -10 2.3 15.6
5 -9 -10 14.5 16.9
-5 9 10 -8.5 12
-5 9 10 -4.1 9
4 -9 -10 49.2 16.9
4 -9 -10 85.59 17.5
-4 9 10 38.8 10.2
-4 9 10 41 12.9
3 -9 -10 3.6 15.8
3 -9 -10 41.4 15.8
-3 9 10 11.2 8.7
-3 9 10 12.2 12.2
2 -9 -10 57.09 17.6
2 -9 -10 61.39 15.1
-2 9 10 24.7 12.3
1 -9 -10 14 13.9
1 -9 -10 31.2 17.7
-1 9 10 -15.7 21.7
-1 9 10 21.2 12.9
2 10 -11 29 15.5
2 10 -11 18.8 13.2
2 10 -11 -12.8 25.2
-2 -10 11 -5.2 15.1
-2 -10 11 2.8 8.4
1 10 -11 7.3 13.7
1 10 -11 -4.9 11.4
1 10 -11 19.5 24.3
-1 -10 11 -8.9 13.8
-1 -10 11 9 8.1
0 10 -11 -9.4 11
0 10 -11 26.9 24.2
0 -10 11 27.6 8.3
0 -10 11 20.6 13.6
-1 10 -11 45.4 10.8
1 -10 11 54.89 13.9
-2 10 -11 19.1 10
2 -10 11 22.1 13.1
-3 10 -11 41.7 10.2
3 -10 11 57.79 14.9
-4 10 -11 -9.2 8.9
4 -10 11 -10.1 13.1
3 9 -11 12.2 13.3
3 9 -11 -9.9 14.2
3 9 -11 71.99 38.8
3 9 -11 -7.5 24.1
-3 -9 11 -10.4 12.9
-3 -9 11 0.8 8.1
2 9 -11 -24.3 12.9
2 9 -11 -7.3 21.3
2 9 -11 -29.3 29.3
-2 -9 11 -22.3 12.7
-2 -9 11 7.5 7.8
1 9 -11 44.4 12.3
1 9 -11 24.2 22.7
-1 -9 11 22.9 11.5
-1 -9 11 21 7.6
0 9 -11 -2.2 9.9
0 9 -11 10.6 20.2
0 -9 11 5.6 7
0 -9 11 -3.6 10.9
-1 9 -11 115.59 16.9
1 -9 11 158.78 19.2
1 -9 11 120.39 13.2
-2 9 -11 -9.6 8.3
2 -9 11 12.4 10.4
-3 9 -11 25.8 9.2
3 -9 11 26.7 10.9
-4 9 -11 7.3 8.8
-4 9 -11 -19.5 13
4 -9 11 -6.1 10.5
-5 9 -11 119.29 16.2
5 -9 11 66.79 13.8
4 8 -11 -29.5 25.7
4 8 -11 0.4 35.5
-4 -8 11 -8.5 8.3
3 8 -11 33.2 30.3
3 8 -11 -10.6 21.7
-3 -8 11 -0.4 7.7
-3 -8 11 2.7 11.9
2 8 -11 56.19 24.7
2 8 -11 19.3 11.6
2 8 -11 -26.4 19.8
-2 -8 11 9.6 6.9
-2 -8 11 2.9 10.1
1 8 -11 23 18.2
1 8 -11 5.1 11
-1 -8 11 25.4 9.7
-1 -8 11 16.2 7
0 8 -11 22.5 10.6
0 8 -11 14.3 17.5
0 -8 11 8.8 8.8
0 -8 11 19.6 6.8
-1 8 -11 -6.3 15.1
-1 8 -11 4.9 8.9
1 -8 11 -2.7 8.6
1 -8 11 -1.4 6.3
-2 8 -11 104.09 14.6
-2 8 -11 71.09 17.8
2 -8 11 96.29 13.3
2 -8 11 84.69 11.6
-3 8 -11 21.7 15.1
-3 8 -11 33.4 8.6
3 -8 11 25 9.4
-4 8 -11 12.5 8.3
-4 8 -11 22.8 12.9
4 -8 11 4.4 9.1
-5 8 -11 1 7.9
-5 8 -11 44.9 13.1
5 -8 11 16.8 10.6
-6 8 -11 43 11.7
-6 8 -11 27.4 8.8
6 -8 11 14.1 10.9
5 7 -11 -14.4 33.2
5 7 -11 8 27.1
-5 -7 11 -0.6 8
4 7 -11 8.8 22.8
4 7 -11 15.8 30.9
-4 -7 11 2.9 7.3
-4 -7 11 -0.5 9.6
3 7 -11 14.4 26.2
3 7 -11 9.4 20.1
-3 -7 11 12.2 8.1
2 7 -11 13.9 19.4
2 7 -11 31.4 18.1
-2 -7 11 21.5 6.6
-2 -7 11 27 8.4
1 7 -11 43.8 16.2
1 7 -11 28.2 16.1
-1 -7 11 13.6 6.4
-1 -7 11 29.5 8.1
0 7 -11 27.3 14.3
0 7 -11 9.6 8.2
0 -7 11 18.7 8
0 -7 11 8.3 5.7
-1 7 -11 47.2 14.7
-1 7 -11 30.4 8.8
1 -7 11 35.6 9.2
1 -7 11 44.8 7.1
-2 7 -11 45.8 15.1
-2 7 -11 70.29 9.5
2 -7 11 75.09 10.9
2 -7 11 72.69 10.2
-3 7 -11 10.4 7.5
-3 7 -11 -3.6 12.2
3 -7 11 10.6 7.6
-4 7 -11 12 12
-4 7 -11 16.2 6.9
4 -7 11 19.3 9.5
-5 7 -11 16.5 7.2
-5 7 -11 41 13.2
5 -7 11 23 10.5
-6 7 -11 59.59 9.5
6 -7 11 82.29 12
-7 7 -11 25.2 8.3
-7 7 -11 44.8 13.5
7 -7 11 14.8 11.1
6 6 -11 30.9 32
6 6 -11 -18.5 28.3
-6 -6 11 -2.3 8.3
5 6 -11 -26.5 24.1
5 6 -11 1.6 29.3
5 6 -11 -19.3 29.3
4 6 -11 9.9 12.5
4 6 -11 -9.4 18.5
4 6 -11 -3.1 24.7
-4 -6 11 4.8 6.2
-4 -6 11 -4.6 7.4
3 6 -11 -12 16.5
3 6 -11 21.1 10
3 6 -11 7.7 18.9
-3 -6 11 -5 6.7
-3 -6 11 0.4 5.6
2 6 -11 23.5 14.7
2 6 -11 0.5 14.8
-2 -6 11 15.9 6.7
-2 -6 11 12.4 5.8
1 6 -11 22.6 13
1 6 -11 1.4 12.5
-1 -6 11 -4.1 6.4
-1 -6 11 17.9 5.9
0 6 -11 162.58 20.1
0 -6 11 144.89 12.5
0 -6 11 178.88 11
-1 6 -11 22.8 12.8
-1 6 -11 24.3 7.5
1 -6 11 39.3 7.6
1 -6 11 37.9 5.8
-2 6 -11 158.68 14.3
-2 6 -11 155.58 20.2
2 -6 11 162.68 11
2 -6 11 170.78 13.9
-3 6 -11 -21.4 10.6
-3 6 -11 2.7 6.1
3 -6 11 -1.7 7.1
3 -6 11 2.8 5.4
-4 6 -11 18.8 7.7
-4 6 -11 23.2 11.8
4 -6 11 20.7 8
-5 6 -11 20.7 11.5
-5 6 -11 -0.5 6.3
5 -6 11 -7.5 8.6
-6 6 -11 27.6 7.2
-6 6 -11 54.99 12.5
6 -6 11 6.6 9.2
-7 6 -11 63.79 14.9
-7 6 -11 25.2 7.6
7 -6 11 14.3 11.4
7 5 -11 26.5 30.3
7 5 -11 -10.7 22.8
7 5 -11 -1.8 32
-7 -5 11 9.9 8.8
6 5 -11 -36.2 22.9
6 5 -11 -30 16.7
6 5 -11 -2.7 27.7
-6 -5 11 -1.2 7
5 5 -11 6.1 13.9
5 5 -11 9.8 26.9
5 5 -11 -2.2 18.8
-5 -5 11 -2.4 6.3
-5 -5 11 -3.3 8.3
4 5 -11 11 16.1
4 5 -11 13.7 10.7
4 5 -11 -5.4 21.2
-4 -5 11 7.1 6.6
-4 -5 11 -8.8 5.9
3 5 -11 -16.2 15.3
3 5 -11 7.8 15
-3 -5 11 20.2 6.5
-3 -5 11 6 5.6
2 5 -11 63.99 14.1
2 5 -11 75.09 15.6
-2 -5 11 54.09 8.2
-2 -5 11 70.59 10.3
1 5 -11 336.07 23.1
1 5 -11 345.67 23.4
-1 -5 11 366.36 17.2
-1 -5 11 343.97 14.6
0 5 -11 665.23 31.7
0 -5 11 643.84 25.1
0 -5 11 662.23 22.9
-1 5 -11 112.39 17.1
-1 5 -11 122.09 12.4
1 -5 11 105.29 9.1
1 -5 11 131.29 11
-2 5 -11 11 11.6
-2 5 -11 24.7 6.6
2 -5 11 3.3 5.9
2 -5 11 12.9 4.8
-3 5 -11 7 5.7
-3 5 -11 11.3 10.8
3 -5 11 28.6 6.8
-4 5 -11 -5.8 5.6
-4 5 -11 2.1 9.8
4 -5 11 7.1 7.6
-5 5 -11 172.08 12.5
5 -5 11 140.09 18.8
5 -5 11 146.19 15.7
-6 5 -11 35.6 7.2
-6 5 -11 42 12.2
6 -5 11 6.7 16.1
6 -5 11 28.4 10.1
-7 5 -11 13.3 14.2
-7 5 -11 5.9 7.7
7 -5 11 -14.8 10.4
7 4 -11 -22.8 20.5
7 4 -11 -7.8 25
7 4 -11 36.9 27.6
-7 -4 11 -8.2 7.9
6 4 -11 -12.2 16
6 4 -11 10.7 20
6 4 -11 -20.6 25.2
-6 -4 11 -9.8 6.5
5 4 -11 22 21.4
5 4 -11 2 12.8
5 4 -11 13.7 16.9
-5 -4 11 1.8 6.2
-5 -4 11 1.4 5.7
4 4 -11 0.5 15.9
4 4 -11 1 10.7
4 4 -11 21.3 15.7
-4 -4 11 5.8 6.1
-4 -4 11 5.6 5.3
3 4 -11 14.5 13.7
3 4 -11 -1.3 11
-3 -4 11 4.7 5.7
-3 -4 11 5.1 4.5
2 4 -11 106.89 15.9
2 4 -11 104.99 19
-2 -4 11 104.09 10.1
-2 -4 11 89.49 8.7
1 4 -11 16.3 9.9
1 4 -11 0.1 9.9
-1 -4 11 -2.1 5
-1 -4 11 9.1 3.9
0 4 -11 111.29 16.5
0 -4 11 113.19 10
0 -4 11 90.99 7.8
-1 4 -11 14.2 11
1 -4 11 1 5.4
1 -4 11 -4.9 3.6
-2 4 -11 -10 5.6
-2 4 -11 14.9 11.4
2 -4 11 -0.6 5.4
2 -4 11 -4.3 3.9
-3 4 -11 70.99 9.6
-3 4 -11 69.99 13
3 -4 11 55.69 7.8
3 -4 11 71.79 8.8
-4 4 -11 74.89 10
-4 4 -11 75.49 11.8
4 -4 11 55.39 8.8
4 -4 11 48.5 9.7
-5 4 -11 143.19 17.9
-5 4 -11 138.09 10.8
5 -4 11 126.99 14.6
5 -4 11 123.39 19.1
-6 4 -11 11.9 5.7
-6 4 -11 22 11
6 -4 11 12.6 13.3
6 -4 11 15.4 8.6
7 -4 11 12.2 10.6
7 -4 11 11.3 19.8
8 3 -11 61.79 27.7
8 3 -11 6.6 24.2
8 3 -11 25.3 28.3
-8 -3 11 17 9.1
7 3 -11 -40.3 23.3
7 3 -11 3.8 20.7
7 3 -11 -1.7 19.1
-7 -3 11 11.1 7.6
6 3 -11 4.9 17.3
6 3 -11 34.8 20.5
6 3 -11 11.9 14
-6 -3 11 10.7 6.5
5 3 -11 36.4 20.3
5 3 -11 18.1 11.1
5 3 -11 33 16
-5 -3 11 35.4 6.4
-5 -3 11 36.2 6.6
4 3 -11 75.59 16.2
4 3 -11 98.59 18.9
4 3 -11 67.49 10.4
-4 -3 11 64.39 9.5
-4 -3 11 75.99 8.2
3 3 -11 820.12 37.6
3 3 -11 768.22 35.4
-3 -3 11 765.12 27.3
-3 -3 11 796.02 26.2
2 3 -11 205.48 19.7
2 3 -11 176.88 18
-2 -3 11 177.68 9.7
-2 -3 11 170.18 11.5
1 3 -11 46.7 10.9
-1 -3 11 38 6
-1 -3 11 38.4 5
0 3 -11 11.6 10.3
0 3 -11 11.9 9.1
0 -3 11 1.5 3.5
0 -3 11 0.7 4.5
-1 3 -11 18.5 10.1
1 -3 11 -1.9 4.6
1 -3 11 5.1 3.7
-2 3 -11 1.8 9.6
-2 3 -11 0.9 5.1
2 -3 11 -2.5 3.7
2 -3 11 7.1 5.1
-3 3 -11 5.5 5
-3 3 -11 -2 9.7
3 -3 11 5.2 3.9
-4 3 -11 147.39 15.7
-4 3 -11 129.79 10.1
4 -3 11 124.29 12.4
4 -3 11 148.99 17.1
-5 3 -11 4.6 4.7
-5 3 -11 19.3 10.2
5 -3 11 6 7.5
5 -3 11 -8.5 11.4
-6 3 -11 123.09 20
6 -3 11 68.29 10.5
6 -3 11 82.89 17.3
-7 3 -11 39.8 14
7 -3 11 24.6 9.7
7 -3 11 0.6 19
8 2 -11 2.1 19.4
8 2 -11 -18.1 25.6
8 2 -11 0.2 21.5
-8 -2 11 -1.6 8.2
7 2 -11 31.5 18.5
7 2 -11 25.1 17.1
7 2 -11 4.2 21.5
-7 -2 11 9.1 7
6 2 -11 10.3 12.6
6 2 -11 25.7 15.8
6 2 -11 21.9 19
-6 -2 11 6 6.1
5 2 -11 94.99 17.1
5 2 -11 95.09 20.1
5 2 -11 90.39 13.8
-5 -2 11 112.99 10.1
-5 -2 11 106.49 10.3
4 2 -11 420.46 28.4
4 2 -11 391.86 20.4
4 2 -11 410.06 25.4
-4 -2 11 417.96 16.5
-4 -2 11 320.37 24.2
-4 -2 11 413.06 17.3
3 2 -11 12.5 8.8
3 2 -11 -11.1 10.6
-3 -2 11 -1.5 3.6
-3 -2 11 0.4 5
2 2 -11 -1.8 9.9
2 2 -11 0.6 8.3
-2 -2 11 -7.8 4.6
-2 -2 11 1.5 3.3
1 2 -11 130.49 14.6
1 2 -11 99.19 14.6
-1 -2 11 97.39 7.2
-1 -2 11 94.79 9.3
0 2 -11 54.29 9.9
0 2 -11 86.99 14.2
0 -2 11 70.99 6.7
0 -2 11 64.29 8.5
-1 2 -11 19.5 8.3
-1 2 -11 32 11.2
1 -2 11 11.4 3.8
1 -2 11 17.1 5.3
-2 2 -11 42.3 11.7
2 -2 11 22.4 4.1
2 -2 11 25.4 5.8
-3 2 -11 322.97 14.2
-3 2 -11 342.87 18.5
3 -2 11 336.27 18.4
3 -2 11 313.97 16.3
3 -2 11 271.07 20
3 -2 11 322.47 12.8
-4 2 -11 27.4 9.8
-4 2 -11 4.2 4.3
4 -2 11 2.1 6.1
4 -2 11 7.9 9.8
-5 2 -11 4.5 4.1
-5 2 -11 7.1 8.9
5 -2 11 -7.6 12.6
5 -2 11 -9.3 7.1
-6 2 -11 32.6 11.6
6 -2 11 2.7 9.6
6 -2 11 -7 16.3
-7 2 -11 -6.3 13
7 -2 11 -2.8 22.1
8 1 -11 -35.2 19.1
8 1 -11 2 24.4
8 1 -11 8.8 18.9
-8 -1 11 -3.4 7.9
7 1 -11 -12.8 20.1
7 1 -11 5.5 15.4
7 1 -11 19.8 16
-7 -1 11 0.2 7.4
6 1 -11 -1 16.5
6 1 -11 8.6 12.1
6 1 -11 14 15.8
-6 -1 11 -4.2 5.5
-6 -1 11 -8.9 5.7
5 1 -11 21.8 9.8
5 1 -11 22 14.1
5 1 -11 27.2 11.7
-5 -1 11 18 5.7
-5 -1 11 22.2 5.6
4 1 -11 8.2 9.6
4 1 -11 7.1 7.9
4 1 -11 -7.8 11.6
-4 -1 11 -6.3 3.9
-4 -1 11 4.9 5.1
-4 -1 11 -5.7 12.2
3 1 -11 17.5 10.8
3 1 -11 14.1 10
-3 -1 11 6.7 4.8
-3 -1 11 7 3.6
2 1 -11 34.1 9.9
2 1 -11 44.8 11.9
-2 -1 11 50.29 6.2
-2 -1 11 47.9 7.6
1 1 -11 93.89 14.5
1 1 -11 91.89 15.5
-1 -1 11 79.99 6.8
-1 -1 11 70.49 8.4
0 1 -11 2.1 10
0 1 -11 7.1 8.4
0 -1 11 -2.8 4.5
0 -1 11 0.3 3.3
-1 1 -11 26.9 10.9
-1 1 -11 -2.1 7.3
1 -1 11 -0.1 5
1 -1 11 8.2 3.5
-2 1 -11 217.68 18.1
2 -1 11 185.18 11.4
2 -1 11 185.78 14.7
2 -1 11 214.98 9.6
2 -1 11 206.18 12.9
-3 1 -11 -0.5 4.1
-3 1 -11 -6.8 7.4
-3 1 -11 3.5 5.9
3 -1 11 -5.8 6.1
3 -1 11 -0.2 3.6
3 -1 11 0.4 9.4
-4 1 -11 12.2 6.7
-4 1 -11 6.5 4.2
-4 1 -11 1.9 9.8
4 -1 11 25.1 7.1
4 -1 11 9 11.4
-5 1 -11 7 7.1
-5 1 -11 25.4 10.4
5 -1 11 1.7 13.6
5 -1 11 -0.6 7.8
-6 1 -11 13 12.1
-6 1 -11 9.9 8.2
6 -1 11 6.5 18.4
6 -1 11 1.7 9.5
-7 1 -11 35.5 13.4
7 -1 11 -9.2 22.3
9 0 -11 4.8 22.4
9 0 -11 -18.2 22.1
9 0 -11 17.3 26.2
-9 0 11 3.3 9.3
8 0 -11 -3.8 18.1
8 0 -11 7.8 17.9
8 0 -11 24.2 22.7
-8 0 11 4.2 7.9
7 0 -11 7.9 15.9
7 0 -11 35.9 18.9
7 0 -11 25.5 15.1
-7 0 11 39.3 7.8
6 0 -11 14.6 11.7
6 0 -11 6.7 15.3
6 0 -11 17 12.9
-6 0 11 18.4 6.3
-6 0 11 9.4 5.7
5 0 -11 6.9 9.3
5 0 -11 -5.4 12.7
5 0 -11 -1.9 10.6
-5 0 11 3.1 4.6
-5 0 11 0 5.6
4 0 -11 -1.8 9.1
4 0 -11 11.7 11.5
4 0 -11 -5.1 7.4
-4 0 11 -2.3 5.3
-4 0 11 0.3 3.9
3 0 -11 11.3 10
3 0 -11 4.5 6
3 0 -11 6 8.8
-3 0 11 10.2 3.8
-3 0 11 5.5 5.1
-3 0 11 -1.6 7.8
2 0 -11 26.2 10.3
2 0 -11 18.6 9.2
-2 0 11 12.3 3.6
-2 0 11 12.5 4.8
1 0 -11 43.7 10.6
1 0 -11 44.7 10.9
-1 0 11 28.9 4.4
-1 0 11 29 5.7
0 0 -11 232.18 18.7
0 0 -11 207.68 16.7
0 0 11 214.98 9.9
0 0 11 208.08 12.2
-1 0 -11 15.5 10.3
-1 0 -11 8 7.8
1 0 11 1.2 6.1
1 0 11 5.1 5
1 0 11 3 6.6
-2 0 -11 268.77 15.9
-2 0 -11 260.97 16.8
2 0 11 243.48 17.1
2 0 11 253.57 10.8
2 0 11 271.07 14.6
-3 0 -11 8.6 8.4
-3 0 -11 17.8 7
3 0 11 -0.1 10
3 0 11 20.2 6.6
-4 0 -11 17.5 9.2
-4 0 -11 7.3 7
4 0 11 9.5 12
4 0 11 14.4 7.3
-5 0 -11 15 8.7
-5 0 -11 8.6 9.6
5 0 11 -4.6 8.3
5 0 11 -26.4 14.6
-6 0 -11 23.1 10.1
-6 0 -11 5.3 11.9
6 0 11 6.1 9.8
6 0 11 -7.4 18.7
9 -1 -11 -2.5 24.4
9 -1 -11 7 20.9
9 -1 -11 17.5 22.2
-9 1 11 9.2 9
8 -1 -11 16.3 17.8
8 -1 -11 32.7 17.9
8 -1 -11 32.5 22.3
-8 1 11 34.7 8.5
7 -1 -11 24.5 17.4
7 -1 -11 -12.5 13.7
7 -1 -11 18.9 15.2
-7 1 11 2.3 7.1
-7 1 11 12.4 7.5
6 -1 -11 1.7 11.4
6 -1 -11 10 12
6 -1 -11 5.1 14.4
-6 1 11 0 5.6
-6 1 11 5 6.4
5 -1 -11 166.18 18.1
5 -1 -11 190.88 18.3
5 -1 -11 162.88 21.8
-5 1 11 184.18 11.5
-5 1 11 181.58 12.4
4 -1 -11 36 8.1
4 -1 -11 27.8 10.9
4 -1 -11 34.4 13.1
-4 1 11 21.6 5.9
-4 1 11 23.1 5.1
3 -1 -11 20.9 9.6
3 -1 -11 10.4 10.4
3 -1 -11 0.8 6.4
-3 1 11 17.9 5.3
-3 1 11 14 4.2
-3 1 11 2.6 10.1
2 -1 -11 40.7 6.2
2 -1 -11 50.09 10.5
2 -1 -11 64.99 12.4
-2 1 11 43.1 6.5
-2 1 11 43.3 6.3
-2 1 11 43.8 8.4
1 -1 -11 0.4 5.2
1 -1 -11 4 9.6
1 -1 -11 13.9 9.6
-1 1 11 -1 6.7
-1 1 11 1.9 3.4
-1 1 11 -0.5 4.5
0 -1 -11 56.29 9
0 -1 -11 72.29 12.4
0 -1 -11 67.19 11.3
0 1 11 68.19 10.2
0 1 11 63.59 8.6
0 1 11 64.69 8.6
0 1 11 60.59 6.5
-1 -1 -11 365.56 20.9
-1 -1 -11 339.07 19.2
1 1 11 359.96 16.9
1 1 11 372.66 19.1
1 1 11 361.36 13.2
-2 -1 -11 26.7 8.6
-2 -1 -11 31 8
-2 -1 -11 14.3 5.2
2 1 11 20.5 6.7
2 1 11 22.2 9.8
-3 -1 -11 199.18 14
-3 -1 -11 193.68 18
3 1 11 194.28 13.7
3 1 11 186.18 20.5
-4 -1 -11 6 7.8
-4 -1 -11 14.3 9.7
4 1 11 -6.3 7.4
4 1 11 -9 13
-5 -1 -11 34.4 10.6
-5 -1 -11 9.8 9.5
5 1 11 0.9 9.5
5 1 11 38.6 18.7
-6 -1 -11 9.6 12.1
-6 -1 -11 18.6 11
6 1 11 -13.4 12.4
6 1 11 -2.9 21.2
9 -2 -11 -4.1 24
9 -2 -11 17.5 21.8
9 -2 -11 27.7 20.4
-9 2 11 10.9 9.2
8 -2 -11 -13.4 19
8 -2 -11 10.8 17.4
8 -2 -11 -12 19.8
-8 2 11 4.3 8.1
7 -2 -11 10.1 15.3
7 -2 -11 -5.8 18
7 -2 -11 18.7 13.7
-7 2 11 14.5 7.3
-7 2 11 7.9 6.8
6 -2 -11 44.5 12.6
6 -2 -11 31.7 16.2
6 -2 -11 31.8 12.5
-6 2 11 31.3 6.6
-6 2 11 37.5 7.2
5 -2 -11 114.59 16.2
5 -2 -11 88.69 14.5
5 -2 -11 71.69 16.9
-5 2 11 71.89 10.5
-5 2 11 81.79 9.2
4 -2 -11 6.3 7.5
4 -2 -11 9.9 9.7
4 -2 -11 2.2 11.2
-4 2 11 3.3 5.3
-4 2 11 4.3 4.4
3 -2 -11 23 11.7
3 -2 -11 35.4 10.1
3 -2 -11 31 7.3
-3 2 11 19.5 5.8
-3 2 11 28.9 5.2
2 -2 -11 5.1 9.7
2 -2 -11 12.5 10.1
2 -2 -11 0 6.4
-2 2 11 8.7 4.1
-2 2 11 8.2 5
1 -2 -11 10.8 9.5
1 -2 -11 18.8 9.8
1 -2 -11 7.2 6.7
-1 2 11 6.4 5
-1 2 11 17.8 4
0 -2 -11 57.39 10.6
0 -2 -11 51.39 10.3
0 -2 -11 47.1 7.5
0 2 11 55.19 5.3
0 2 11 64.09 9.1
0 2 11 58.49 9.3
-1 -2 -11 78.49 12.3
-1 -2 -11 73.59 11.8
-1 -2 -11 78.19 12
1 2 11 64.49 10.4
1 2 11 65.79 6.6
1 2 11 79.19 10.1
-2 -2 -11 11.1 7.5
-2 -2 -11 5.3 8.5
2 2 11 3.5 6.5
2 2 11 11.9 10.1
-3 -2 -11 15.2 8.3
-3 -2 -11 11.3 9.4
3 2 11 -0.5 12.1
3 2 11 15.7 7.4
-4 -2 -11 22 9.5
-4 -2 -11 3.6 9.5
4 2 11 4.4 8.6
4 2 11 9.2 15.4
-5 -2 -11 14.4 11.5
-5 -2 -11 13.9 10.1
5 2 11 -1.9 10.5
5 2 11 -31.4 18.9
-6 -2 -11 28.3 12.4
-6 -2 -11 23.5 13
6 2 11 28 23.3
9 -3 -11 -12.7 23.8
9 -3 -11 3.2 20.9
-9 3 11 3.5 9.3
8 -3 -11 4.5 16.8
8 -3 -11 -1.7 19.8
8 -3 -11 4.5 17.2
-8 3 11 5.3 8.6
7 -3 -11 48.2 15.7
7 -3 -11 57.69 16.6
7 -3 -11 35.7 18
-7 3 11 40.5 7.8
-7 3 11 61.79 8.6
6 -3 -11 98.89 15.2
6 -3 -11 101.69 15.4
6 -3 -11 71.79 18.3
-6 3 11 94.09 11.6
-6 3 11 93.19 11.7
5 -3 -11 -4.8 9.4
5 -3 -11 -15.6 13.3
5 -3 -11 -9.6 10.3
-5 3 11 -0.1 5.9
-5 3 11 -1.4 5.6
4 -3 -11 -7 9.2
4 -3 -11 -2.4 8.1
4 -3 -11 -0.5 12.1
-4 3 11 5.5 4.7
-4 3 11 5.2 5.6
3 -3 -11 11.5 10.2
3 -3 -11 -1 7.3
3 -3 -11 -8.5 10.4
-3 3 11 9.5 5.3
-3 3 11 -0.6 4.3
2 -3 -11 4.7 6.8
2 -3 -11 6.7 10.6
2 -3 -11 5.1 9.5
-2 3 11 3.1 5.2
-2 3 11 -6.9 4
1 -3 -11 6 8.6
1 -3 -11 10.2 9.3
1 -3 -11 7.8 7
-1 3 11 1.7 4.1
-1 3 11 3.2 5.3
0 -3 -11 244.88 17.8
0 -3 -11 236.78 15.7
0 -3 -11 255.37 16.3
0 3 11 256.27 11.3
0 3 11 237.98 14.3
0 3 11 267.17 17.9
-1 -3 -11 543.75 23.9
-1 -3 -11 545.65 25.1
-1 -3 -11 556.34 24.1
1 3 11 514.15 22.8
1 3 11 544.75 27.4
-2 -3 -11 11.4 8.5
2 3 11 19.7 11.1
2 3 11 6.3 7.6
-3 -3 -11 45.4 10.6
-3 -3 -11 59.99 12.1
3 3 11 21.2 15.1
-4 -3 -11 54.29 11.6
-4 -3 -11 53.79 11.9
4 3 11 39.4 10.5
4 3 11 49.3 18.9
-5 -3 -11 1.9 12.3
-5 -3 -11 7 11.8
5 3 11 30.4 21.8
5 3 11 3.2 10.3
9 -4 -11 46.1 21.8
9 -4 -11 22.8 23.8
-9 4 11 68.89 11.2
8 -4 -11 40.8 19.3
8 -4 -11 -3.9 19.2
-8 4 11 45 11.2
-8 4 11 25.1 9.1
7 -4 -11 -7.1 16.2
7 -4 -11 7.3 14.2
7 -4 -11 5.5 14.6
-7 4 11 -8.3 7.8
-7 4 11 0.4 7.1
6 -4 -11 -8.3 12.7
6 -4 -11 -7.7 14.2
6 -4 -11 -17.1 12.1
-6 4 11 -10.6 6.9
-6 4 11 11.5 6.2
5 -4 -11 8.1 10.1
5 -4 -11 -11.3 14.6
5 -4 -11 -14.4 10.3
-5 4 11 1.4 6.4
-5 4 11 -4.2 6.1
4 -4 -11 -8.6 13
4 -4 -11 -6.9 8.9
4 -4 -11 -12.2 9.6
-4 4 11 7.2 5.9
-4 4 11 -0.5 5.1
3 -4 -11 14.4 12.2
3 -4 -11 13.4 8.1
3 -4 -11 19 9.1
-3 4 11 12.3 6.2
-3 4 11 21.3 5.2
2 -4 -11 208.68 15.8
2 -4 -11 223.78 16
2 -4 -11 198.08 19.3
-2 4 11 206.08 14.1
-2 4 11 223.18 11.6
1 -4 -11 40.8 10.7
1 -4 -11 38.6 9
1 -4 -11 28.2 8.3
-1 4 11 40.8 5.4
-1 4 11 22 6.9
0 -4 -11 567.44 24.1
0 -4 -11 579.14 25.7
0 -4 -11 552.44 26.5
0 4 11 546.55 24
0 4 11 561.14 27.7
0 4 11 554.54 18.9
-1 -4 -11 -13.8 9.5
-1 -4 -11 7.2 8.8
-1 -4 -11 -5 9.6
1 4 11 -1.4 7.5
-2 -4 -11 13.3 9.5
-2 -4 -11 19.6 9.7
2 4 11 -2.3 8.9
2 4 11 8.5 13.5
-3 -4 -11 14.9 10.5
-3 -4 -11 15.2 10.2
3 4 11 4.2 10
3 4 11 27.9 17.2
-4 -4 -11 16.3 12.4
-4 -4 -11 40.5 12.7
4 4 11 0.3 11.9
4 4 11 33.9 21.8
8 -5 -11 13.4 20.6
8 -5 -11 58.19 21.2
-8 5 11 48.3 10.1
-8 5 11 57.69 11
7 -5 -11 -22.4 14.8
7 -5 -11 -28.6 17.1
-7 5 11 13.8 9.4
-7 5 11 9.7 7.6
6 -5 -11 -10.3 15.8
6 -5 -11 24.1 14.4
-6 5 11 0.4 8
-6 5 11 12.4 6.8
5 -5 -11 3.7 14.7
5 -5 -11 -2.5 12
-5 5 11 5.5 6.7
-5 5 11 0.7 7.6
4 -5 -11 -9.8 9.6
4 -5 -11 11 13.7
4 -5 -11 3.2 9
-4 5 11 -0.8 7.4
-4 5 11 0.3 5.8
3 -5 -11 1.7 8.4
3 -5 -11 12.4 12.5
3 -5 -11 -2.7 8.2
-3 5 11 -4 5.2
-3 5 11 0.9 7.3
2 -5 -11 41.9 8.8
2 -5 -11 21.5 9.8
2 -5 -11 34.4 12.3
-2 5 11 42.3 6.5
-2 5 11 34 7.8
1 -5 -11 74.19 13
1 -5 -11 51.19 12.2
1 -5 -11 37.3 10
-1 5 11 45.1 6.3
-1 5 11 42 9.3
0 -5 -11 52.69 11.6
0 -5 -11 27.2 11
0 5 11 31.3 12.1
0 5 11 46.9 9.7
0 5 11 22.5 5.1
-1 -5 -11 22.5 10.9
-1 -5 -11 9.9 10.3
-1 -5 -11 12.1 12.9
1 5 11 0.6 8.3
1 5 11 -5.7 14.6
-2 -5 -11 23.2 11.2
-2 -5 -11 13.3 10.7
2 5 11 0.2 9.3
2 5 11 14.3 16
-3 -5 -11 3.7 11.4
-3 -5 -11 16.4 12
3 5 11 7.1 20.3
3 5 11 4.1 11.3
-4 -5 -11 -12.9 13.5
-4 -5 -11 18.6 13.3
4 5 11 21 23.3
4 5 11 -29 12.5
8 -6 -11 49 20.9
8 -6 -11 42.1 22.8
-8 6 11 68.69 11.3
-8 6 11 80.99 12
7 -6 -11 23.7 17.8
7 -6 -11 -4.7 19.1
-7 6 11 -0.9 8.2
-7 6 11 8.8 10.5
6 -6 -11 2.1 14.9
-6 6 11 -10.2 7.8
-6 6 11 4.6 8.9
5 -6 -11 24.9 16
5 -6 -11 54.09 15.3
-5 6 11 37.2 7.9
-5 6 11 42.8 9.2
4 -6 -11 130.79 12.6
-4 6 11 130.69 13.2
-4 6 11 132.99 14.7
3 -6 -11 55.39 13.8
3 -6 -11 69.89 14.3
-3 6 11 62.99 10
-3 6 11 73.19 8.5
2 -6 -11 99.59 15.5
2 -6 -11 167.28 20.2
-2 6 11 122.29 11.4
-2 6 11 104.49 14.2
1 -6 -11 14 10.3
1 -6 -11 12 12.6
1 -6 -11 1.9 12
-1 6 11 11.9 8.3
-1 6 11 7.2 5.8
0 -6 -11 -5 12.4
0 -6 -11 5.7 9.9
0 -6 -11 30.1 11
0 6 11 2.7 9.5
0 6 11 -4 13.7
-1 -6 -11 29.9 14.9
-1 -6 -11 17.2 10.8
1 6 11 6.4 9.9
1 6 11 6.9 18.8
-2 -6 -11 13.3 11.1
-2 -6 -11 32 11.8
2 6 11 6.1 11.4
2 6 11 -8.9 18.9
-3 -6 -11 26.9 13.9
-3 -6 -11 29.6 13.5
3 6 11 1.6 13.6
3 6 11 -0.8 22.7
7 -7 -11 -22.9 18.3
7 -7 -11 -16 17.8
-7 7 11 0.6 11
-7 7 11 -9.4 9.6
6 -7 -11 17.7 16.9
6 -7 -11 -23.5 16.8
-6 7 11 14.8 10.1
-6 7 11 21.8 9
5 -7 -11 25.1 14.7
5 -7 -11 7.8 15.9
-5 7 11 33.7 10
-5 7 11 13.4 8.1
4 -7 -11 42.2 13.1
4 -7 -11 35 14.9
-4 7 11 40.3 8.6
-4 7 11 48.5 11.6
3 -7 -11 18.8 12.8
3 -7 -11 10.9 12.8
-3 7 11 19.9 7.8
-3 7 11 16.8 10.4
2 -7 -11 44.7 14.8
2 -7 -11 38.5 14.8
-2 7 11 24.5 10.3
-2 7 11 35 7.5
1 -7 -11 47.3 10.2
1 -7 -11 45.7 13
1 -7 -11 23.7 14.5
-1 7 11 7.9 9.7
0 -7 -11 24.3 15.3
0 -7 -11 21.2 11.7
0 -7 -11 14.2 12.3
0 7 11 -10 10.4
0 7 11 8.9 17.2
-1 -7 -11 14.8 12.7
-1 -7 -11 -21.3 15.9
-1 -7 -11 0.1 11.7
1 7 11 12.5 11.9
1 7 11 -39.5 19.1
-2 -7 -11 -1.5 13
-2 -7 -11 5.5 13.2
2 7 11 -12.9 12.3
2 7 11 0 23
6 -8 -11 -0.3 17.4
6 -8 -11 -9.4 16.8
-6 8 11 17.6 9.6
-6 8 11 38.1 12.1
5 -8 -11 38.1 17.7
5 -8 -11 22.6 15.5
-5 8 11 38.2 11.4
-5 8 11 33.9 9.7
4 -8 -11 12.2 14.2
4 -8 -11 -8.5 14.4
-4 8 11 0.5 10.4
-4 8 11 2.7 8.6
3 -8 -11 18.5 15.7
3 -8 -11 53.49 16.1
-3 8 11 19.5 9.3
-3 8 11 6.8 10.6
2 -8 -11 32.1 16.1
2 -8 -11 56.69 14.9
-2 8 11 26.3 11.3
-2 8 11 31.5 7.5
1 -8 -11 -3.4 15.9
1 -8 -11 25.1 13.5
-1 8 11 -7.3 11.2
0 -8 -11 31.2 13.8
0 -8 -11 5 17.5
0 -8 -11 12.8 12.9
0 8 11 15.4 20.3
0 8 11 -3.7 12.3
5 -9 -11 6.8 16.2
5 -9 -11 21.2 18.3
-5 9 11 23.9 13.1
-5 9 11 33.9 10.9
4 -9 -11 41.6 17.9
4 -9 -11 -9.3 16.9
-4 9 11 10 10.5
-4 9 11 -9.8 12.9
3 -9 -11 0.5 16.2
3 -9 -11 34.9 17.6
-3 9 11 0.5 12.5
-3 9 11 -6.3 9.1
2 -9 -11 12.5 15.3
2 -9 -11 0.3 17.8
-2 9 11 14.5 13.1
1 10 -12 20.6 13.5
1 10 -12 1.2 25.1
-1 -10 12 6.8 9
-1 -10 12 9.8 14
0 10 -12 -9 24.3
0 10 -12 11.3 12.6
0 -10 12 34.1 14.4
0 -10 12 17.7 9.2
-1 10 -12 16.2 10.8
1 -10 12 23 8.5
1 -10 12 10.8 13.8
-2 10 -12 10.5 10.4
2 -10 12 3.2 14.4
-3 10 -12 19.3 10.5
3 -10 12 12.7 14
3 9 -12 0.9 15.7
3 9 -12 -5.8 13.9
3 9 -12 -23.6 26.3
3 9 -12 36.4 39.1
-3 -9 12 8 8.8
-3 -9 12 12.6 13.9
2 9 -12 -41.2 28.1
2 9 -12 -2.9 13.8
2 9 -12 -30.5 22.3
-2 -9 12 6.1 8.2
-2 -9 12 9.7 13
1 9 -12 17.8 23.1
1 9 -12 34.8 13.1
-1 -9 12 22.4 12.8
-1 -9 12 15.6 8.1
0 9 -12 3.1 21.9
0 9 -12 -12.8 10.8
0 -9 12 0.5 7.4
0 -9 12 5.3 10.8
-1 9 -12 78.89 12.2
1 -9 12 60.19 12.3
1 -9 12 82.39 10.2
-2 9 -12 -1.4 9
-2 9 -12 -33.4 20.5
2 -9 12 -6.6 10.5
-3 9 -12 22.6 9.4
-3 9 -12 -22.3 17.3
3 -9 12 26.9 11.1
-4 9 -12 30.7 9.4
-4 9 -12 17 15.1
4 -9 12 0.4 11.4
-5 9 -12 0.7 9.2
5 -9 12 12.5 12.2
4 8 -12 13 28.2
4 8 -12 -27.8 37.5
-4 -8 12 16.3 9
3 8 -12 13.6 24.1
3 8 -12 33.2 32.3
-3 -8 12 -11 8
-3 -8 12 1.4 11.7
2 8 -12 -5.9 23.3
2 8 -12 3 12.1
2 8 -12 14.3 20.7
-2 -8 12 13.8 9.7
-2 -8 12 17.1 7.3
1 8 -12 -30.9 17.9
1 8 -12 19 12.3
-1 -8 12 -10.5 7.1
-1 -8 12 2.3 9.3
0 8 -12 66.49 11.9
0 8 -12 36.7 19.7
0 -8 12 56.29 12.1
0 -8 12 77.29 11.6
-1 8 -12 81.39 20.4
-1 8 -12 83.59 11.5
1 -8 12 77.29 8.8
1 -8 12 77.89 11.9
-2 8 -12 -9.1 17.7
-2 8 -12 -10.6 9
2 -8 12 17.6 10.4
2 -8 12 5.1 7.4
-3 8 -12 14.7 8.9
-3 8 -12 -22.9 16.1
3 -8 12 15.8 9.9
-4 8 -12 1 8.4
-4 8 -12 4.8 14.3
4 -8 12 13.2 10.9
-5 8 -12 33.3 13.4
-5 8 -12 -6.2 8.8
5 -8 12 8.1 11
-6 8 -12 1.6 9
-6 8 -12 24.9 12.1
6 -8 12 -2.9 11.4
5 7 -12 -12.6 35.2
5 7 -12 51.99 30.5
-5 -7 12 23.9 8.7
4 7 -12 43.7 24.3
4 7 -12 -31.4 29.7
-4 -7 12 1.4 10.1
-4 -7 12 -5.3 7.4
3 7 -12 -41.6 26.9
3 7 -12 -10.9 21.6
-3 -7 12 8.7 9.2
-3 -7 12 -5.5 6.9
2 7 -12 -16.3 17.4
2 7 -12 23.7 20
-2 -7 12 -5.6 7.1
-2 -7 12 1.2 9
1 7 -12 0.7 16.7
-1 -7 12 8.6 6
-1 -7 12 2.7 9
0 7 -12 47.8 18.7
0 7 -12 56.59 10.2
0 -7 12 62.59 10.2
0 -7 12 56.49 7.7
-1 7 -12 12.7 8.8
-1 7 -12 -1 15.5
1 -7 12 10.4 8.2
1 -7 12 2.8 5.8
-2 7 -12 6.7 7.9
-2 7 -12 -15.9 14.9
2 -7 12 11.9 8.3
2 -7 12 6.9 6.4
-3 7 -12 9.2 15.4
-3 7 -12 25.4 7.7
3 -7 12 23.6 8.9
-4 7 -12 22.8 7.9
-4 7 -12 2.4 13.7
4 -7 12 31.9 10.5
-5 7 -12 -10.8 7.8
-5 7 -12 26.3 12.4
5 -7 12 -7.4 9.7
-6 7 -12 33.2 12.3
-6 7 -12 -2.2 8
6 -7 12 15.1 10.8
6 6 -12 -32.2 34
6 6 -12 1.9 28.8
-6 -6 12 1.1 8.9
5 6 -12 -1.6 25.3
5 6 -12 -21.6 30.1
-5 -6 12 -11.6 7.5
4 6 -12 -1.9 20.6
4 6 -12 -26.1 25
-4 -6 12 -0.6 8
-4 -6 12 -8.8 6.5
3 6 -12 -6.2 18
3 6 -12 -14.6 19.6
-3 -6 12 12.4 7.4
-3 -6 12 -7.3 6
2 6 -12 78.99 20.1
2 6 -12 83.79 20.2
-2 -6 12 92.69 10.9
-2 -6 12 69.49 9.6
1 6 -12 8.1 13.8
1 6 -12 -1.8 14.7
-1 -6 12 5.3 5.5
-1 -6 12 12.4 7.1
0 6 -12 2.1 13.9
0 -6 12 1.3 5.9
0 -6 12 1.1 7.8
-1 6 -12 141.39 16
-1 6 -12 102.09 17.5
1 -6 12 82.29 10.6
1 -6 12 86.49 14
-2 6 -12 -10.7 7.9
-2 6 -12 -12.7 12.7
2 -6 12 -2.1 7.4
2 -6 12 11.3 6.3
-3 6 -12 47.1 15.4
-3 6 -12 53.39 8.8
3 -6 12 62.59 7.6
3 -6 12 60.59 9.7
-4 6 -12 9.8 7.6
-4 6 -12 -7 12.9
4 -6 12 8.4 8.5
-5 6 -12 17.9 7.6
-5 6 -12 16.6 11.5
5 -6 12 -10.2 9.1
-6 6 -12 39.6 8
-6 6 -12 55.99 14
6 -6 12 24.2 10.8
6 5 -12 8.8 24.9
6 5 -12 -0.7 28.4
-6 -5 12 2 7.7
5 5 -12 15.5 22
5 5 -12 14.2 24.8
-5 -5 12 9.5 7.1
-5 -5 12 2.6 9.9
4 5 -12 -17 20.9
4 5 -12 12.6 21.2
-4 -5 12 3.6 6
-4 -5 12 -7.4 7.1
3 5 -12 141.59 22.9
3 5 -12 145.69 25.6
-3 -5 12 111.19 11.3
-3 -5 12 103.29 12.8
2 5 -12 53.19 14.7
2 5 -12 47.1 16
-2 -5 12 37 7.7
-2 -5 12 28.5 6.2
1 5 -12 47.1 13.9
1 5 -12 45.1 14.6
-1 -5 12 47.5 7.9
-1 -5 12 57.79 8
0 5 -12 1.3 12.3
0 -5 12 -3.5 4.6
0 -5 12 2.9 6.2
-1 5 -12 -18 11.4
1 -5 12 4.3 6.6
1 -5 12 3.3 5
-2 5 -12 -9.2 12.5
-2 5 -12 14.9 7.1
2 -5 12 15.4 5.2
2 -5 12 4.4 6.9
-3 5 -12 13.6 12.3
-3 5 -12 8.6 6.5
3 -5 12 18.2 5.5
-4 5 -12 21.1 13
-4 5 -12 17.5 6.9
4 -5 12 18.8 7.9
-5 5 -12 122.29 17.3
-5 5 -12 70.39 9.2
5 -5 12 87.09 11.5
-6 5 -12 43 13.8
-6 5 -12 23.2 6.8
6 -5 12 12.6 10.3
-7 5 -12 61.09 16.2
7 4 -12 12.6 29.9
7 4 -12 -35.6 26.5
-7 -4 12 5.4 8.4
6 4 -12 7.3 15.4
6 4 -12 22.2 23.9
6 4 -12 -7.2 24.4
-6 -4 12 3.6 7.1
5 4 -12 4.9 21.4
5 4 -12 0.5 11.2
5 4 -12 13.7 19.5
-5 -4 12 7.5 7.3
-5 -4 12 0.9 6.3
4 4 -12 28.6 17.3
4 4 -12 28.2 19.5
-4 -4 12 23.8 6.9
-4 -4 12 30 6.6
3 4 -12 81.69 17.4
3 4 -12 53.29 15.5
-3 -4 12 47.9 7.5
-3 -4 12 62.09 9.2
2 4 -12 15.6 11.5
2 4 -12 26.3 12.4
-2 -4 12 7.9 4.8
-2 -4 12 5 5.9
1 4 -12 344.67 23.3
1 4 -12 337.97 23.4
-1 -4 12 347.17 17.2
-1 -4 12 362.16 14.9
0 4 -12 56.59 13.9
0 -4 12 35 5.3
0 -4 12 40.8 7.7
-1 4 -12 4.5 11.7
1 -4 12 0.5 6
1 -4 12 -0.7 4.4
-2 4 -12 47.1 13.2
-2 4 -12 65.79 8.4
2 -4 12 64.79 8.1
2 -4 12 66.89 8.7
-3 4 -12 54.89 13.1
-3 4 -12 54.39 7.2
3 -4 12 41.3 5.8
3 -4 12 45.2 8.8
-4 4 -12 39.7 11.8
-4 4 -12 26.8 6.3
4 -4 12 16.1 7.6
-5 4 -12 14.7 5.9
-5 4 -12 20.1 11.7
5 -4 12 17.2 8.5
-6 4 -12 4.7 6.4
6 -4 12 9.8 9.5
-7 4 -12 36.6 15.5
7 -4 12 2.2 10.5
7 3 -12 15 22.6
7 3 -12 13.9 17.5
7 3 -12 -35.7 24.3
-7 -3 12 14.6 8
6 3 -12 -1.3 13
6 3 -12 2.5 22.2
6 3 -12 39 19.6
-6 -3 12 6.7 6.5
5 3 -12 15.6 19.9
5 3 -12 7.5 16.4
5 3 -12 -13.5 10.6
-5 -3 12 -4.5 6.5
-5 -3 12 -1.3 6
4 3 -12 273.77 29.7
4 3 -12 232.58 27
-4 -3 12 254.87 14.5
-4 -3 12 235.08 13.6
3 3 -12 23.1 13.4
3 3 -12 2.5 12.1
-3 -3 12 1.8 5.8
-3 -3 12 -0.5 4.5
2 3 -12 355.66 24.5
2 3 -12 396.16 25.8
-2 -3 12 400.76 17.8
-2 -3 12 388.66 15.7
1 3 -12 265.77 21.5
1 3 -12 288.67 21
-1 -3 12 260.37 12.5
-1 -3 12 265.97 14.4
0 3 -12 7.4 9.6
0 3 -12 13.8 9.5
0 -3 12 14.1 4.4
-1 3 -12 111.69 18.1
1 -3 12 87.19 9.7
1 -3 12 84.09 8.2
-2 3 -12 25.9 11.6
-2 3 -12 10.4 6.1
2 -3 12 0 4.2
2 -3 12 9 5.7
-3 3 -12 210.98 13.2
-3 3 -12 218.18 20.4
3 -3 12 193.28 14.7
3 -3 12 197.88 10.7
-4 3 -12 16.1 10.8
-4 3 -12 12.2 5.5
4 -3 12 1.7 10.2
4 -3 12 14.3 8
-5 3 -12 -5.8 5.1
-5 3 -12 9 11.1
5 -3 12 11.3 8.2
5 -3 12 14.6 13.3
-6 3 -12 7.1 13.2
6 -3 12 -14.9 10
-7 3 -12 32.9 15.4
7 -3 12 21.1 11
8 2 -12 -9 27.8
8 2 -12 14.1 22.7
8 2 -12 -26.1 20.2
-8 -2 12 -1.8 8.9
7 2 -12 16.5 19
7 2 -12 -20.8 16.4
7 2 -12 -26.9 23.1
-7 -2 12 11.4 7.8
6 2 -12 20 19.6
6 2 -12 23 13.1
6 2 -12 22.6 16.4
-6 -2 12 -14.5 6.1
-6 -2 12 4.8 6.7
5 2 -12 15.8 17.5
5 2 -12 -0.3 14.6
5 2 -12 -6.9 10.1
-5 -2 12 9.5 6.4
-5 -2 12 -0.9 5.3
4 2 -12 2.4 7.7
4 2 -12 3.4 14.3
4 2 -12 1.6 10.7
-4 -2 12 -1.9 5
-4 -2 12 -9.2 5.9
3 2 -12 7.7 12
3 2 -12 0.1 11
-3 -2 12 -1.5 4
-3 -2 12 0.1 5.6
2 2 -12 19.7 10.5
2 2 -12 17.5 11.3
-2 -2 12 4.6 5.4
1 2 -12 1.6 10.1
1 2 -12 20.5 11
-1 -2 12 -3.8 5.3
-1 -2 12 2.9 3.9
0 2 -12 8.4 9
0 2 -12 5.5 9.5
0 -2 12 13.4 4.3
0 -2 12 4.7 5.4
-1 2 -12 4.6 10.8
-1 2 -12 0.5 8.2
1 -2 12 2.8 3.7
1 -2 12 -3.2 5.6
-2 2 -12 164.98 18.4
2 -2 12 166.18 9.3
2 -2 12 157.68 12.3
-3 2 -12 33.7 9.7
-3 2 -12 19.8 5.7
3 -2 12 32.5 7.3
3 -2 12 26.6 8.7
3 -2 12 13.1 4.6
-4 2 -12 -2.1 5
-4 2 -12 11.7 10.3
4 -2 12 -4.9 10.8
4 -2 12 7.1 7.6
-5 2 -12 18.2 10.5
5 -2 12 12.1 13.5
-6 2 -12 36.4 13
6 -2 12 16 9.5
6 -2 12 -9 18.1
8 1 -12 32.1 22.4
8 1 -12 31.2 26
8 1 -12 -6.1 20.6
-8 -1 12 3.4 8.5
7 1 -12 10.9 17.6
7 1 -12 28 21.5
-7 -1 12 -5.4 7.5
6 1 -12 70.09 18.4
6 1 -12 121.09 22.5
6 1 -12 63.29 14.6
-6 -1 12 97.89 11.5
-6 -1 12 84.99 11.8
5 1 -12 27 18.1
5 1 -12 36.6 13.1
5 1 -12 35.4 10.3
-5 -1 12 22.2 6.1
-5 -1 12 43.8 7
4 1 -12 1133.59 45.7
4 1 -12 1181.58 48.4
4 1 -12 1118.19 38.4
-4 -1 12 1172.88 37.3
-4 -1 12 1142.69 36.3
3 1 -12 5.2 10.6
3 1 -12 5.2 11.5
-3 -1 12 0.4 3.8
-3 -1 12 13.9 5.6
2 1 -12 -4.4 9.6
2 1 -12 6.9 10.3
-2 -1 12 -2.3 3.7
-2 -1 12 2.6 5.5
1 1 -12 10.3 10.1
1 1 -12 5.6 9
-1 -1 12 -4.7 3.7
0 1 -12 17.5 10.7
0 1 -12 2.3 9.5
0 -1 12 -0.9 5.1
0 -1 12 2.1 3.8
-1 1 -12 72.29 14.4
-1 1 -12 86.39 13.3
1 -1 12 70.59 7.4
1 -1 12 78.59 9.7
-2 1 -12 247.28 19.4
-2 1 -12 209.38 14.5
2 -1 12 219.88 14.2
2 -1 12 231.48 10.6
-3 1 -12 23.6 11.8
-3 1 -12 21.4 7
-3 1 -12 5.4 5.2
3 -1 12 10.8 7.1
3 -1 12 7.2 9.8
3 -1 12 12 4.4
-4 1 -12 15.4 7.2
-4 1 -12 0.2 4.5
-4 1 -12 12.6 10.7
4 -1 12 -6.1 11.9
4 -1 12 10 8.2
-5 1 -12 25.9 8.3
-5 1 -12 46.6 11.7
5 -1 12 8.5 9.1
5 -1 12 20.9 15.4
-6 1 -12 12.5 12.4
6 -1 12 12.4 19
6 -1 12 14.3 10.1
8 0 -12 -2.3 19.8
8 0 -12 -23.6 23.3
8 0 -12 -6.9 19
-8 0 12 -10.7 7.9
7 0 -12 57.39 17.2
7 0 -12 43.2 17.4
7 0 -12 31 21.3
-7 0 12 32.6 8
6 0 -12 93.29 15.3
6 0 -12 79.99 19.9
6 0 -12 85.39 17.6
-6 0 12 96.39 12.5
-6 0 12 115.79 11.4
5 0 -12 9 10.1
5 0 -12 -12.9 16.4
5 0 -12 5.6 11.2
-5 0 12 7.3 6.4
-5 0 12 9.3 6
4 0 -12 8.6 8.1
4 0 -12 16.8 12.9
4 0 -12 18.1 11
-4 0 12 15.2 4.6
-4 0 12 15.6 5.9
3 0 -12 31.6 7.6
3 0 -12 41.8 12.6
3 0 -12 41.1 11.4
-3 0 12 39.9 6.7
-3 0 12 37.6 9.4
-3 0 12 37.2 5.4
2 0 -12 85.79 13.8
2 0 -12 81.89 13.5
-2 0 12 77.19 9.3
-2 0 12 65.79 7.6
1 0 -12 45.6 11.7
1 0 -12 33.8 11.7
-1 0 12 23.6 5.7
-1 0 12 32.2 4.9
0 0 -12 40.4 11.7
0 0 -12 37.2 10.4
0 0 12 32.7 4.9
0 0 12 27.6 6.1
-1 0 -12 6.4 9.7
-1 0 -12 -0.7 7.8
1 0 12 4.5 3.8
1 0 12 14.4 7.8
1 0 12 -4.3 5.3
1 0 12 -9.6 7.2
-2 0 -12 122.19 13.3
-2 0 -12 147.59 14.6
2 0 12 91.69 15.6
2 0 12 109.59 11.8
2 0 12 124.29 8.1
-3 0 -12 9.1 7.7
-3 0 -12 6.3 4.9
-3 0 -12 -3.9 9.5
3 0 12 5.7 7
3 0 12 15.3 10.8
3 0 12 6.1 4
-4 0 -12 40.3 10.7
-4 0 -12 24.9 8
4 0 12 9.3 13.1
4 0 12 24.6 9.6
-5 0 -12 30.1 11.1
-5 0 -12 13 9.7
5 0 12 -7.3 9.9
5 0 12 7.2 16.4
-6 0 -12 67.49 14.3
-6 0 -12 35 10.4
6 0 12 17.2 22.4
8 -1 -12 -20.6 17.8
8 -1 -12 0.4 22.5
8 -1 -12 5.4 20.4
-8 1 12 -11.3 8.2
7 -1 -12 60.59 17.3
7 -1 -12 64.69 23.6
7 -1 -12 68.69 17.7
-7 1 12 59.39 8.8
-7 1 12 60.49 9.1
6 -1 -12 36.5 14
6 -1 -12 48 17.7
6 -1 -12 9.8 12.6
-6 1 12 20.9 6.8
-6 1 12 30.7 7.6
5 -1 -12 53.09 11.5
5 -1 -12 35.6 13
5 -1 -12 32.3 17.6
-5 1 12 34.2 7.1
-5 1 12 18.8 6.4
4 -1 -12 9.5 8
4 -1 -12 18.9 12.8
4 -1 -12 7.5 10.1
-4 1 12 11.2 4.8
-4 1 12 12.7 6
3 -1 -12 33.8 12.5
3 -1 -12 28.8 7.3
3 -1 -12 35.2 11.3
-3 1 12 35.5 5.5
-3 1 12 32.1 6.4
2 -1 -12 0.1 10.1
2 -1 -12 10.4 10.6
2 -1 -12 -11.4 5.6
-2 1 12 -3.2 5.2
-2 1 12 2.1 4
-2 1 12 1.3 9.8
1 -1 -12 3.1 10.5
1 -1 -12 17 10.8
1 -1 -12 1.8 5.6
-1 1 12 -9.8 5.2
-1 1 12 6.9 4
-1 1 12 -0.9 8.3
0 -1 -12 13.9 10.6
0 -1 -12 4.3 9.5
0 -1 -12 2.4 6.2
0 1 12 -14.9 9.6
0 1 12 -5.2 6.5
0 1 12 4.5 6
0 1 12 -1 3.9
-1 -1 -12 5.7 7.8
-1 -1 -12 18.1 8.7
1 1 12 14.5 6
1 1 12 3.5 8.6
1 1 12 9.5 4.1
-2 -1 -12 6.3 9.4
-2 -1 -12 5.1 8
2 1 12 4.1 9.7
2 1 12 -2.8 6.5
2 1 12 -4 4
-3 -1 -12 7.4 10.3
-3 -1 -12 6.9 8.2
3 1 12 11.7 12
3 1 12 4.5 7.4
-4 -1 -12 23.7 11
-4 -1 -12 14.8 10
4 1 12 1.6 8.9
4 1 12 -3.6 14.8
-5 -1 -12 13.3 10.6
-5 -1 -12 14.4 11.3
5 1 12 -10.7 18.7
5 1 12 -6.1 9.9
-6 -1 -12 10.5 13.6
-6 -1 -12 -7 11.8
6 1 12 -3.7 22.9
8 -2 -12 -2.6 18.5
8 -2 -12 30.7 18.8
8 -2 -12 11.6 21.9
-8 2 12 2.4 8.2
7 -2 -12 49 21.4
7 -2 -12 36.2 16.3
7 -2 -12 53.79 18.9
-7 2 12 50.29 8.8
-7 2 12 34.4 8.5
6 -2 -12 -4.9 13.2
6 -2 -12 15 16.8
6 -2 -12 3.5 12.3
-6 2 12 -1.4 6.1
-6 2 12 -3.7 7.2
5 -2 -12 16.3 12
5 -2 -12 10.9 10.4
5 -2 -12 13.9 16.6
-5 2 12 0.8 5.8
-5 2 12 2 6.7
4 -2 -12 2.9 10.6
4 -2 -12 -11.3 7.9
4 -2 -12 -3.6 12.4
-4 2 12 -3.7 4.9
-4 2 12 4.6 6
3 -2 -12 14.8 11
3 -2 -12 28.4 12.6
3 -2 -12 0 7.4
-3 2 12 19.2 6
-3 2 12 17.1 5
2 -2 -12 14.5 10.8
2 -2 -12 10.1 10.9
2 -2 -12 18.9 6.7
-2 2 12 15.6 4.7
-2 2 12 18.4 6.2
1 -2 -12 93.09 11.5
1 -2 -12 79.89 13.2
1 -2 -12 116.09 16
-1 2 12 96.59 10.8
-1 2 12 112.29 8.8
0 -2 -12 30.6 9.8
0 -2 -12 28.3 9.9
0 -2 -12 23.7 7.2
0 2 12 5.9 6.2
0 2 12 26.1 8.1
0 2 12 18.8 4.7
-1 -2 -12 296.37 18.6
-1 -2 -12 293.57 18.2
1 2 12 275.17 20
1 2 12 268.17 11.7
1 2 12 261.57 16.1
-2 -2 -12 10.4 10.7
-2 -2 -12 28.7 9.3
2 2 12 13.3 8.1
2 2 12 18.5 11.4
-3 -2 -12 113.19 17.4
-3 -2 -12 66.29 11.6
3 2 12 81.19 15.8
3 2 12 62.49 10.9
-4 -2 -12 54.19 12
-4 -2 -12 43 10.7
4 2 12 33.5 18.1
4 2 12 46.8 10.6
-5 -2 -12 55.79 13
-5 -2 -12 36.8 11.8
5 2 12 57.79 22
8 -3 -12 -17.1 19.6
8 -3 -12 -5.3 18.9
-8 3 12 -1.5 8.6
7 -3 -12 12.2 15.7
7 -3 -12 31.3 20.1
7 -3 -12 21.7 16.2
-7 3 12 41.9 8.6
-7 3 12 35.4 8.5
6 -3 -12 2.4 15.6
6 -3 -12 -13.9 13
6 -3 -12 -3.2 12.2
-6 3 12 7.3 7.4
-6 3 12 4.6 6.9
5 -3 -12 28.5 11.8
5 -3 -12 20.4 15.9
5 -3 -12 47.2 13.1
-5 3 12 48.4 7.9
-5 3 12 30.8 6.4
4 -3 -12 15.1 9.6
4 -3 -12 -5.9 11.3
4 -3 -12 -12.9 13.9
-4 3 12 16.1 5.5
-4 3 12 11 6.5
3 -3 -12 26.5 12.5
3 -3 -12 45.6 9.4
3 -3 -12 19.8 10.9
-3 3 12 34 5.9
-3 3 12 36.7 7.3
2 -3 -12 9.7 9.3
2 -3 -12 9.9 11
2 -3 -12 -7.3 7.5
-2 3 12 -0.6 4.6
-2 3 12 5.5 6.2
1 -3 -12 29.1 8.5
1 -3 -12 30.3 10.1
1 -3 -12 16.5 10.4
-1 3 12 16.4 6.3
-1 3 12 16.3 5.1
0 -3 -12 37.9 11.1
0 -3 -12 31 9.1
0 -3 -12 52.09 9
0 3 12 35.8 5.4
0 3 12 35.4 9.8
0 3 12 25.7 7.7
-1 -3 -12 109.69 15.1
-1 -3 -12 90.49 15.4
-1 -3 -12 84.29 15.1
1 3 12 104.89 18.2
1 3 12 77.49 11.8
-2 -3 -12 23.7 10.6
-2 -3 -12 30 10.3
2 3 12 7.2 13.4
2 3 12 28.5 8.7
-3 -3 -12 50.89 11.8
-3 -3 -12 63.49 12
3 3 12 9.3 17
3 3 12 36.2 10.4
-4 -3 -12 30.8 11.5
-4 -3 -12 28.7 12.4
4 3 12 -23.4 20.2
4 3 12 21.7 11.9
-5 -3 -12 14.3 13.1
-5 -3 -12 -1.5 12.6
5 3 12 -2.5 10.8
5 3 12 18.3 24.4
8 -4 -12 -2.6 20.7
8 -4 -12 14.4 19.5
-8 4 12 23.4 16.2
-8 4 12 9.2 10.3
7 -4 -12 20.5 16.4
7 -4 -12 0.6 15.2
7 -4 -12 -15.5 17.9
-7 4 12 -9.3 9.5
-7 4 12 3.1 7.9
6 -4 -12 -18.9 15.6
6 -4 -12 -12.4 14.8
-6 4 12 -8.9 7
-6 4 12 -2.5 8.7
5 -4 -12 -2.3 15.5
5 -4 -12 17.7 12.3
5 -4 -12 25.6 12
-5 4 12 23.5 8
-5 4 12 9.8 7.1
4 -4 -12 21.5 9.9
4 -4 -12 9.9 14.1
4 -4 -12 -7.5 10.5
-4 4 12 5.7 6.2
-4 4 12 7.6 7.1
3 -4 -12 58.79 14.5
3 -4 -12 85.69 14.3
3 -4 -12 60.29 11.9
-3 4 12 92.29 12.4
-3 4 12 100.49 10
2 -4 -12 16.1 9.1
2 -4 -12 20.5 9.7
2 -4 -12 12 13.2
-2 4 12 23.2 5.6
-2 4 12 25.2 8.4
1 -4 -12 27 9.3
1 -4 -12 23.6 12.4
1 -4 -12 31.6 9.4
-1 4 12 17.1 7.9
-1 4 12 7.7 5.4
0 -4 -12 2 10.1
0 -4 -12 3.3 9
0 -4 -12 3.8 9.7
0 4 12 4.3 5.1
0 4 12 -3.2 7.4
0 4 12 17.3 10.2
-1 -4 -12 -12.2 9.6
-1 -4 -12 10.8 11.1
-1 -4 -12 15 10.8
1 4 12 12.9 12.3
1 4 12 12.1 8.5
-2 -4 -12 16.2 10.5
-2 -4 -12 14.9 11
2 4 12 5.3 9.6
2 4 12 -12.6 16.3
-3 -4 -12 18.1 11.1
-3 -4 -12 14.5 11.9
3 4 12 -5.7 19.3
3 4 12 18.3 10.8
-4 -4 -12 39.2 13
-4 -4 -12 60.89 14.3
4 4 12 37.8 23.2
4 4 12 34.2 13.4
8 -5 -12 1.3 19.8
-8 5 12 15.8 9.8
-8 5 12 6.2 10.7
7 -5 -12 -6.3 16.5
7 -5 -12 -26.3 19
-7 5 12 9.5 8.3
-7 5 12 -13.4 9.6
6 -5 -12 -3.8 14.3
6 -5 -12 -1.7 17.6
-6 5 12 -0.3 8.3
-6 5 12 -15 8.4
5 -5 -12 -20.6 11.2
5 -5 -12 -6.8 13
5 -5 -12 -19.5 14.7
-5 5 12 12.5 7.3
-5 5 12 8.1 8.3
4 -5 -12 -8.4 10.3
4 -5 -12 -15.8 9.5
4 -5 -12 -21.8 12.8
-4 5 12 8.1 7.9
-4 5 12 2.5 7.6
3 -5 -12 15.1 10
3 -5 -12 15.2 13.4
3 -5 -12 6.4 9.4
-3 5 12 3.8 6.2
-3 5 12 13.4 7.8
2 -5 -12 37.5 12.6
2 -5 -12 36.7 11
2 -5 -12 57.59 9.8
-2 5 12 39.9 8.8
-2 5 12 58.89 7.4
1 -5 -12 276.37 17.4
1 -5 -12 253.77 21
1 -5 -12 221.08 20.9
-1 5 12 233.88 13.1
-1 5 12 187.68 16.6
0 -5 -12 0.6 12.3
0 -5 -12 19 11.6
0 -5 -12 44.6 11.5
0 5 12 19.1 12.7
0 5 12 7 6
0 5 12 3.7 9.2
-1 -5 -12 37 12.1
-1 -5 -12 31.3 12
-1 -5 -12 24.6 13.6
1 5 12 49.9 16.9
1 5 12 20.4 9.3
-2 -5 -12 50.99 13
2 5 12 37.7 18.8
2 5 12 32.7 11.9
-3 -5 -12 41.7 13.3
-3 -5 -12 16 13.6
3 5 12 33.6 12.8
3 5 12 -36.9 20.8
7 -6 -12 -18.7 18
7 -6 -12 -31.3 18.6
-7 6 12 17.2 9.7
-7 6 12 4.7 11.3
6 -6 -12 -24.8 16.8
6 -6 -12 11 15.4
-6 6 12 12.9 9.8
-6 6 12 20.7 8.5
5 -6 -12 -8.1 16.6
5 -6 -12 -8.6 13.1
-5 6 12 12 9.1
-5 6 12 16.2 7.9
4 -6 -12 10 10.3
4 -6 -12 -4.9 13.9
4 -6 -12 -8.8 11.3
-4 6 12 -1.1 7.7
-4 6 12 4.6 8.8
3 -6 -12 47.4 13
3 -6 -12 53.59 14.6
-3 6 12 56.19 10
-3 6 12 53.09 9
2 -6 -12 41.3 13.7
2 -6 -12 3.3 12.5
-2 6 12 25.5 7
-2 6 12 21.8 9.3
1 -6 -12 55.39 14.5
1 -6 -12 51.19 14.5
-1 6 12 79.49 10.3
-1 6 12 55.49 11.5
0 -6 -12 13.8 12
0 -6 -12 12.1 14.4
0 -6 -12 6.2 12.3
0 6 12 23.3 15
0 6 12 9.9 10.4
-1 -6 -12 34.4 13.2
-1 -6 -12 15.5 15.5
-1 -6 -12 20.9 11.9
1 6 12 5.2 10.4
1 6 12 16.1 18.1
-2 -6 -12 34.3 13.4
-2 -6 -12 -3.7 13.4
2 6 12 -3.9 20.9
2 6 12 -1.6 12.1
7 -7 -12 18.6 19
-7 7 12 12.5 11.7
-7 7 12 38.6 11.1
6 -7 -12 -31.3 17
6 -7 -12 9.9 16.7
-6 7 12 16.9 9.6
-6 7 12 -6.1 11
5 -7 -12 -11.6 15.7
5 -7 -12 11.4 14.8
-5 7 12 -2.7 10.2
-5 7 12 -3.7 8.9
4 -7 -12 17.2 15.5
4 -7 -12 2.5 12.9
-4 7 12 14.5 9.2
-4 7 12 7.8 10.7
3 -7 -12 -2.3 13.9
3 -7 -12 7.8 13.9
-3 7 12 6.8 10.7
-3 7 12 5.3 8.3
2 -7 -12 30.6 12.5
2 -7 -12 26 14.6
2 -7 -12 40.1 14.8
-2 7 12 20.9 7.7
-2 7 12 19 10.6
1 -7 -12 21.3 13
1 -7 -12 -0.6 15.6
-1 7 12 -21.8 10.8
0 -7 -12 37.9 11.9
0 -7 -12 25.6 12.5
0 -7 -12 -5.9 16.4
0 7 12 9.3 17.9
0 7 12 -3.9 11.5
-1 -7 -12 8.2 13.3
-1 -7 -12 55.59 17.7
-1 -7 -12 15.7 13.1
1 7 12 -0.3 12.6
1 7 12 2.3 21.1
6 -8 -12 24.1 19.5
6 -8 -12 4.3 19.7
-6 8 12 61.49 11.6
-6 8 12 47.2 13.2
5 -8 -12 0.4 14.9
5 -8 -12 28.8 17.8
-5 8 12 25.7 10.4
-5 8 12 19.1 12.4
4 -8 -12 13.2 15.6
4 -8 -12 11.3 16.6
-4 8 12 -7.1 10.4
-4 8 12 1.6 11.8
3 -8 -12 27.2 15.9
3 -8 -12 10.8 16.4
-3 8 12 -3.3 9.1
-3 8 12 0.6 11.6
2 -8 -12 26.8 17.2
2 -8 -12 37.9 15.5
-2 8 12 11.6 12.5
1 -8 -12 6 18.3
1 -8 -12 34.1 14.6
-1 8 12 -15.6 13.1
-1 8 12 2.1 20
0 10 -13 -39.3 25.2
0 10 -13 -15.4 13.3
0 -10 13 2.7 9
0 -10 13 0.8 15
-1 10 -13 2 12.1
1 -10 13 7.3 9.3
1 -10 13 12.2 14.9
-2 10 -13 23.1 12
-2 10 -13 -24.4 22.6
2 -10 13 58.09 14.5
2 9 -13 -9.6 16.1
2 9 -13 -41 24.2
-2 -9 13 -3.3 13.4
-2 -9 13 -0.7 8.5
1 9 -13 -11.7 23
1 9 -13 20.1 14.3
-1 -9 13 4.5 8.1
-1 -9 13 6 12.1
0 9 -13 -34.9 21.1
0 9 -13 13.6 12
0 -9 13 18.6 12.1
0 -9 13 18.9 7.9
-1 9 -13 -9.4 21.1
-1 9 -13 52.29 11.6
1 -9 13 31 12.2
1 -9 13 52.79 8.8
-2 9 -13 -12 9.8
-2 9 -13 -38.4 20.7
2 -9 13 -6 8
2 -9 13 4.5 12.2
-3 9 -13 17.4 10
3 -9 13 22.5 11.9
-4 9 -13 42.5 16.2
-4 9 -13 36.8 10.5
4 -9 13 24 13.1
3 8 -13 22.5 24.2
3 8 -13 -11.4 30.5
-3 -8 13 -2.4 8.5
-3 -8 13 21.9 11.9
2 8 -13 18.5 22.1
2 8 -13 -16.2 23.8
-2 -8 13 8 7.9
-2 -8 13 8.5 10.4
1 8 -13 -5.5 11.5
1 8 -13 -22.9 19.8
-1 -8 13 -10.1 7.2
-1 -8 13 4.6 10.4
0 8 -13 16.2 11.8
0 8 -13 18.4 19.8
0 -8 13 4.1 6.8
0 -8 13 -9.3 10.3
-1 8 -13 21.7 10.4
1 -8 13 5.7 6.8
1 -8 13 12.1 9.9
-2 8 -13 -5.3 9
2 -8 13 1.8 10.2
2 -8 13 21.4 7.3
-3 8 -13 30.7 9.5
-3 8 -13 -26.7 16.9
3 -8 13 35.4 11.2
-4 8 -13 15.1 8.8
-4 8 -13 -10.1 16.8
4 -8 13 -11.7 10.7
-5 8 -13 29.1 15.2
-5 8 -13 6.2 9.3
5 -8 13 15.2 11.9
5 7 -13 -22.1 36.8
5 7 -13 57.29 32.2
-5 -7 13 10.6 9.3
4 7 -13 -31.9 31.9
4 7 -13 -14.9 26.8
-4 -7 13 1.9 11.5
-4 -7 13 1.8 8.3
3 7 -13 32.3 22.2
3 7 -13 37.5 26.9
-3 -7 13 8.8 9.7
-3 -7 13 22.1 7.8
2 7 -13 62.59 23.8
2 7 -13 95.99 22.6
-2 -7 13 86.49 12.7
-2 -7 13 60.79 11.3
1 7 -13 2.2 17.7
-1 -7 13 6.6 6.7
-1 -7 13 12.3 8.8
0 7 -13 9.7 9.4
0 7 -13 -20.7 15.7
0 -7 13 7.9 6.4
0 -7 13 20.9 9
-1 7 -13 24.4 9.9
-1 7 -13 -1.1 17.5
1 -7 13 11.1 9.1
1 -7 13 9.2 6.3
-2 7 -13 -10.4 16.7
-2 7 -13 -2.5 8.5
2 -7 13 -0.9 6.8
2 -7 13 -0.9 9.3
-3 7 -13 -1.2 8
-3 7 -13 -12.4 14.9
3 -7 13 -4 6.8
3 -7 13 -5.4 8.8
-4 7 -13 -1.2 9.1
-4 7 -13 6.6 14.6
4 -7 13 -6.9 9.4
-5 7 -13 13.4 9.1
-5 7 -13 42.6 14.3
5 -7 13 3.1 10.6
5 6 -13 9.6 30.9
5 6 -13 20.3 28.4
-5 -6 13 1.1 8.3
4 6 -13 -32.3 21.5
4 6 -13 3.3 26.8
-4 -6 13 -0.8 7.2
-4 -6 13 14.3 9
3 6 -13 27.5 19.8
3 6 -13 -9.3 25.6
-3 -6 13 -14 6.1
-3 -6 13 1.5 8.5
2 6 -13 -2.2 16.8
2 6 -13 19.3 17.7
-2 -6 13 5.5 6.6
-2 -6 13 -5.4 8.4
1 6 -13 22.3 15.5
1 6 -13 6.2 16.5
-1 -6 13 43 9.8
-1 -6 13 34 6.9
0 6 -13 43.3 17.4
0 -6 13 65.39 7.7
0 -6 13 66.19 10.6
-1 6 -13 8 17.1
-1 6 -13 12.2 9.4
1 -6 13 19.5 6.2
1 -6 13 17.4 8.3
-2 6 -13 10.5 15.7
-2 6 -13 16.3 8.9
2 -6 13 7.3 7.9
2 -6 13 23.6 6.7
-3 6 -13 -1.2 7.7
-3 6 -13 -12.3 14.6
3 -6 13 -9.3 7.9
3 -6 13 -2.8 6.3
-4 6 -13 110.89 15.1
-4 6 -13 117.49 16.4
4 -6 13 80.99 12.3
-5 6 -13 1.8 7.9
-5 6 -13 34.1 13.2
5 -6 13 -6.3 10
6 5 -13 -12.1 29.6
6 5 -13 -39.4 26.8
-6 -5 13 3.6 8.4
5 5 -13 59.89 24.7
5 5 -13 68.79 27.4
4 5 -13 11.5 18.8
4 5 -13 -15.6 22.5
-4 -5 13 -2.8 6.5
-4 -5 13 10.2 7.9
3 5 -13 0 15.9
3 5 -13 8.2 18.7
-3 -5 13 -5.4 7.4
-3 -5 13 2.7 5.9
2 5 -13 1.1 15.8
2 5 -13 17.8 15.2
-2 -5 13 8.6 7.4
-2 -5 13 21.1 6.6
1 5 -13 -5.3 13.3
1 5 -13 -1.5 15.1
-1 -5 13 5.6 7.2
-1 -5 13 -5.8 5.4
0 5 -13 30.1 15.6
0 -5 13 34.6 8.3
0 -5 13 24.3 6.4
-1 5 -13 40.9 16.5
1 -5 13 68.69 10.4
1 -5 13 62.09 9.9
-2 5 -13 30.3 17.1
-2 5 -13 37.7 9.7
2 -5 13 60.19 7.7
2 -5 13 44.6 9.4
-3 5 -13 21.1 13.8
-3 5 -13 13.7 8
3 -5 13 6.5 8
3 -5 13 3.1 6.9
-4 5 -13 29.1 8.7
-4 5 -13 55.39 13.7
4 -5 13 26 8.7
-5 5 -13 22.8 12.9
-5 5 -13 5.5 7.6
5 -5 13 -0.7 9.3
-6 5 -13 -9.8 7.4
-6 5 -13 -2.7 13.9
6 -5 13 7.4 10.3
7 4 -13 23.8 29.4
7 4 -13 -7.4 30.5
-7 -4 13 7 9
6 4 -13 -27.4 25.5
6 4 -13 -5.1 22.8
-6 -4 13 -4.8 7.4
5 4 -13 -10.2 20.5
5 4 -13 -7 22.7
-5 -4 13 11.9 6.6
-5 -4 13 11.8 8.2
4 4 -13 0.9 16.3
4 4 -13 6.5 20.1
-4 -4 13 12.5 7.2
-4 -4 13 4.8 5.8
3 4 -13 142.09 25.7
3 4 -13 154.98 21.6
-3 -4 13 150.98 11.9
-3 -4 13 158.38 13.3
2 4 -13 7.3 13.8
2 4 -13 19 16.1
-2 -4 13 32.7 7.1
-2 -4 13 20.2 6.4
1 4 -13 4.3 12.5
1 4 -13 16.8 13.7
-1 -4 13 31.3 7.6
-1 -4 13 20.9 5.4
0 4 -13 -10.1 11.1
0 -4 13 5 4.9
0 -4 13 -1.2 6.4
-1 4 -13 174.68 23.9
1 -4 13 219.48 12.4
1 -4 13 203.28 15.4
-2 4 -13 114.89 18.5
-2 4 -13 83.09 9.8
2 -4 13 103.89 13.5
2 -4 13 124.89 9.7
-3 4 -13 163.78 14.1
-3 4 -13 164.28 21.6
3 -4 13 167.58 11.3
3 -4 13 140.59 15.1
-4 4 -13 87.49 12.7
-4 4 -13 136.79 20.7
4 -4 13 95.49 15.3
-5 4 -13 27.3 7.1
-5 4 -13 57.59 14.6
5 -4 13 30.4 9.8
-6 4 -13 56.99 14.5
6 -4 13 7.7 10.5
7 3 -13 24 24.6
7 3 -13 -37.5 26.7
-7 -3 13 4 8.4
6 3 -13 48.7 21.5
6 3 -13 -6.1 23.5
-6 -3 13 12 7.1
5 3 -13 -9.1 19.8
5 3 -13 -11.8 17.4
-5 -3 13 -0.1 7
-5 -3 13 14.7 6.9
4 3 -13 4.2 15
4 3 -13 6.2 19.2
-4 -3 13 5 5.7
-4 -3 13 1.6 6.9
3 3 -13 1 14
3 3 -13 20 14
-3 -3 13 -10.8 6.3
-3 -3 13 4.3 5.8
2 3 -13 6 12.2
2 3 -13 -1.4 12.8
-2 -3 13 2.8 6.2
-2 -3 13 -2.1 4.6
1 3 -13 -18.5 11.1
1 3 -13 -12.5 12.1
-1 -3 13 -0.5 6
-1 -3 13 3 4.4
0 3 -13 5.2 12.3
0 3 -13 -11.8 10.5
0 -3 13 -5.9 5.9
0 -3 13 1.3 4.6
-1 3 -13 16.2 12.7
1 -3 13 1.3 4.7
1 -3 13 -13.4 6
-2 3 -13 96.89 12.7
-2 3 -13 69.89 15.4
2 -3 13 80.19 12.3
2 -3 13 76.89 8.3
-3 3 -13 15.1 6.5
-3 3 -13 25.3 13.1
3 -3 13 10.6 5.1
3 -3 13 22.1 8.4
-4 3 -13 2.6 6.2
-4 3 -13 11.2 12.9
4 -3 13 17.4 8.7
-5 3 -13 1.4 6.1
-5 3 -13 11.7 13
5 -3 13 11.9 8.9
-6 3 -13 24.6 14.5
6 -3 13 -8.8 10.4
8 2 -13 -24.4 24.2
8 2 -13 0.2 29.4
7 2 -13 -15.1 20.7
7 2 -13 -12.9 24.4
7 2 -13 -6.9 18
-7 -2 13 3.8 8
6 2 -13 12 17.4
6 2 -13 16.1 12.1
6 2 -13 27.1 23
-6 -2 13 19.9 8.4
-6 -2 13 20.7 7.3
5 2 -13 17.6 18.2
5 2 -13 23.2 9.8
5 2 -13 12.7 15
-5 -2 13 9.5 7.1
-5 -2 13 3.9 5.8
4 2 -13 24.8 17.5
4 2 -13 2.4 15.8
-4 -2 13 22 6.4
-4 -2 13 14.2 7.2
3 2 -13 129.09 19
3 2 -13 111.89 18.1
-3 -2 13 128.39 12.3
-3 -2 13 99.49 9.6
2 2 -13 -5.6 11.3
2 2 -13 4.2 11.5
-2 -2 13 0.8 6.1
-2 -2 13 -0.5 4.5
1 2 -13 46.5 12.2
1 2 -13 59.09 13.1
-1 -2 13 54.89 6.3
-1 -2 13 56.59 8.2
0 2 -13 74.59 12.6
0 2 -13 76.89 15.1
0 -2 13 76.79 8.5
0 -2 13 85.19 10.7
-1 2 -13 58.59 10.9
-1 2 -13 51.59 13.9
1 -2 13 45.7 7.6
1 -2 13 53.69 6.1
-2 2 -13 20.3 8.1
-2 2 -13 27.2 13.1
2 -2 13 26.9 5
2 -2 13 30.4 7.9
-3 2 -13 82.89 11.3
3 -2 13 57.59 8.4
3 -2 13 55.89 9.2
-4 2 -13 -12.4 5.6
-4 2 -13 12.8 11.3
4 -2 13 2.2 8.2
-5 2 -13 41.5 12.6
5 -2 13 -13.9 9.5
-6 2 -13 27.3 14.2
6 -2 13 19.5 11.4
8 1 -13 -5.3 21.9
8 1 -13 33.3 27.3
8 1 -13 -20.6 19.7
-8 -1 13 7.5 9.3
7 1 -13 33.6 22.3
-7 -1 13 -9 7.5
6 1 -13 11.7 19.7
6 1 -13 15.7 12.7
6 1 -13 5.9 15.4
-6 -1 13 1.5 7.6
-6 -1 13 -1.8 6.4
5 1 -13 121.39 17.8
5 1 -13 144.89 20.8
5 1 -13 136.59 24
-5 -1 13 165.18 13.7
-5 -1 13 153.48 12.6
4 1 -13 6.8 12.4
4 1 -13 9.3 15.8
4 1 -13 -5.4 7.5
-4 -1 13 16 6.7
-4 -1 13 20.4 6.6
3 1 -13 125.19 18.4
3 1 -13 120.29 18.8
-3 -1 13 127.39 11.7
-3 -1 13 99.59 9.3
2 1 -13 13.2 11.6
2 1 -13 8.8 11.5
-2 -1 13 7.2 4.6
-2 -1 13 -0.1 6
1 1 -13 52.39 12.7
1 1 -13 64.69 14
-1 -1 13 61.79 8
-1 -1 13 62.29 8.4
0 1 -13 8.5 11.5
0 1 -13 5.5 10.6
0 -1 13 2.5 5.9
0 -1 13 8 4.6
-1 1 -13 8.5 8.6
-1 1 -13 4 11.8
1 -1 13 14.2 6.8
1 -1 13 11.4 4.7
-2 1 -13 154.58 14.1
-2 1 -13 158.58 20.2
2 -1 13 160.58 9.7
2 -1 13 156.08 14.1
-3 1 -13 59.79 13.3
-3 1 -13 55.09 9.1
3 -1 13 27.3 10.5
3 -1 13 51.29 9.4
3 -1 13 40.1 5.5
-4 1 -13 20.5 8.1
-4 1 -13 15.6 12.2
4 -1 13 -2.4 12.9
4 -1 13 5.4 8.3
-5 1 -13 34.1 12.6
-5 1 -13 2.4 8.6
5 -1 13 0.5 17.5
5 -1 13 19.5 10.9
-6 1 -13 32.9 14
6 -1 13 -4.8 11.5
8 0 -13 1.6 26.1
8 0 -13 42.8 22.1
8 0 -13 4.9 21.2
-8 0 13 0.1 9
7 0 -13 18 22.2
7 0 -13 5 18.1
7 0 -13 -18.7 15.7
-7 0 13 12.3 7.5
6 0 -13 20.4 18
6 0 -13 -1.9 15.8
6 0 -13 -21.4 12.2
-6 0 13 12.4 7.6
-6 0 13 -5.9 6.4
5 0 -13 -3 14.3
5 0 -13 -3.2 10
5 0 -13 -16.8 17.3
-5 0 13 -1.1 5.7
-5 0 13 5.6 7.1
4 0 -13 0.1 8.2
4 0 -13 -1.4 12
4 0 -13 25 15.5
-4 0 13 0.5 6.5
-4 0 13 -0.6 5.3
3 0 -13 14.3 11.5
3 0 -13 -7.3 12.8
-3 0 13 8.1 6.5
-3 0 13 -1.4 4.7
2 0 -13 10.4 10.8
2 0 -13 -5.7 11.9
-2 0 13 7.4 5.8
-2 0 13 6.8 4.8
1 0 -13 -1.6 10.8
1 0 -13 -3 10.7
-1 0 13 -6.8 4.5
-1 0 13 8.7 6
0 0 -13 0.9 10.6
0 0 -13 -4.8 9.4
0 0 13 6.1 4.6
0 0 13 6.4 6.3
-1 0 -13 9.4 10.8
-1 0 -13 11 8.3
1 0 13 15.5 8.3
1 0 13 15.5 4.6
1 0 13 16.4 6.4
-2 0 -13 13.4 8.8
-2 0 -13 21.4 10.9
2 0 13 12.4 8
2 0 13 1.9 4.5
2 0 13 -10 9.7
-3 0 -13 29.2 12.1
-3 0 -13 32 8.5
3 0 13 8.2 8.2
3 0 13 25.8 12.6
-4 0 -13 5.2 8.9
-4 0 -13 22.7 10.9
4 0 13 -5.3 8.8
4 0 13 12.6 14.3
-5 0 -13 12.3 11.8
-5 0 -13 27.1 11.2
5 0 13 -1.6 10.2
5 0 13 -18.4 18.1
8 -1 -13 -23.6 24
8 -1 -13 13.9 19.6
8 -1 -13 29.7 21.4
-8 1 13 38 9.7
7 -1 -13 85.09 23.4
7 -1 -13 63.19 18.8
7 -1 -13 57.79 18.1
-7 1 13 63.09 10.4
-7 1 13 39.8 8.7
6 -1 -13 26.4 13.5
6 -1 -13 27.6 19
6 -1 -13 40 18.8
-6 1 13 40.4 7.6
-6 1 13 53.69 9.1
5 -1 -13 38.4 11.5
5 -1 -13 25.1 17.4
5 -1 -13 20 15
-5 1 13 40.6 8.2
-5 1 13 36.2 6.9
4 -1 -13 -9 14.8
4 -1 -13 23.9 12.7
4 -1 -13 0 8.5
-4 1 13 4.7 6.7
-4 1 13 8.7 5.7
3 -1 -13 10.2 13
3 -1 -13 15.8 7.4
3 -1 -13 -3.7 10.2
-3 1 13 13.4 5
-3 1 13 22.4 6.4
2 -1 -13 -15.5 11.1
2 -1 -13 -7.4 11
2 -1 -13 -5.5 6.2
-2 1 13 1.9 4.7
-2 1 13 8 6.5
1 -1 -13 3.2 10.7
1 -1 -13 8.6 6.4
1 -1 -13 10.6 11
-1 1 13 9.9 6.8
-1 1 13 10 4.8
0 -1 -13 -2.1 9.2
0 -1 -13 2.1 6.9
0 -1 -13 9.4 10.5
0 1 13 8.5 7.6
0 1 13 3 4.6
0 1 13 -3.6 6.5
-1 -1 -13 57.69 11.4
-1 -1 -13 86.09 13.7
1 1 13 66.69 10.6
1 1 13 72.79 10.2
1 1 13 57.49 7.8
-2 -1 -13 3.1 9.3
-2 -1 -13 22.8 12.2
2 1 13 8.7 4.4
2 1 13 12.7 8.1
2 1 13 34.1 12.1
-3 -1 -13 24.4 11.1
-3 -1 -13 15.6 10.2
3 1 13 11.4 8.7
3 1 13 -1.1 13.1
-4 -1 -13 7.9 11.7
-4 -1 -13 19.5 10.2
4 1 13 9.3 17.1
4 1 13 -0.5 9.8
-5 -1 -13 18.2 11.6
-5 -1 -13 10.4 12.1
5 1 13 14.3 20.3
5 1 13 -5.2 11.2
8 -2 -13 26.8 20.1
8 -2 -13 70.99 22.6
8 -2 -13 38.9 25.6
-8 2 13 70.39 10.7
7 -2 -13 -3 21.1
7 -2 -13 -7.8 17.7
7 -2 -13 -21.7 17.5
-7 2 13 -4.8 9
-7 2 13 13 7.9
6 -2 -13 3.5 12.9
6 -2 -13 -16.7 17.1
6 -2 -13 -12.5 14.9
-6 2 13 -1.6 6.6
-6 2 13 -7 7.9
5 -2 -13 18.1 11.3
5 -2 -13 12.3 15.8
5 -2 -13 5.4 13.3
-5 2 13 25 7.9
-5 2 13 10.5 6.3
4 -2 -13 92.09 15.7
4 -2 -13 67.19 18.4
4 -2 -13 99.19 16.5
-4 2 13 108.89 11.5
-4 2 13 118.39 12.9
3 -2 -13 4.3 7.5
3 -2 -13 -18.5 11
3 -2 -13 -6.3 13
-3 2 13 -0.6 6.5
-3 2 13 2.1 5.1
2 -2 -13 46.2 8.2
2 -2 -13 41 13.4
2 -2 -13 41.9 12.6
-2 2 13 37.2 8.3
-2 2 13 64.29 8.9
1 -2 -13 19.1 7.4
1 -2 -13 6.4 10.4
1 -2 -13 1.5 11.1
-1 2 13 1.7 7
-1 2 13 0.9 5.1
0 -2 -13 17.9 10
0 -2 -13 4.8 10.1
0 -2 -13 15.3 8.3
0 2 13 12.2 5.4
0 2 13 16.9 9.3
0 2 13 8.9 8
-1 -2 -13 19.7 10.9
-1 -2 -13 28.9 10.9
1 2 13 15.8 8
1 2 13 22.7 4.9
1 2 13 18.1 11.1
-2 -2 -13 15.1 11
-2 -2 -13 18.9 10.5
2 2 13 -4.3 8.2
2 2 13 -11.6 12.5
-3 -2 -13 17.9 12
-3 -2 -13 8.8 10
3 2 13 -2.7 9.2
3 2 13 7.8 14.7
-4 -2 -13 51.59 12.4
-4 -2 -13 50.89 12
4 2 13 35 10.8
4 2 13 35.9 20.4
-5 -2 -13 48.8 14.5
-5 -2 -13 21.7 12.9
5 2 13 38.2 23.6
5 2 13 28.7 12.3
8 -3 -13 -18.4 23
8 -3 -13 6.4 20.6
-8 3 13 14.9 9.7
7 -3 -13 -13.5 16.3
7 -3 -13 -27.4 19.4
7 -3 -13 3.2 18
-7 3 13 -1.1 8
-7 3 13 -0.1 9.8
6 -3 -13 -24.5 18.3
6 -3 -13 4.5 14
-6 3 13 -4.1 8.6
-6 3 13 -3.1 7.5
5 -3 -13 26.2 17
5 -3 -13 8.1 13.6
5 -3 -13 24.7 12
-5 3 13 33.7 7.7
-5 3 13 40.6 9.9
4 -3 -13 8.2 15.7
4 -3 -13 -13.1 9.3
4 -3 -13 -3.7 12
-4 3 13 -5.6 6.8
-4 3 13 -1 7.5
3 -3 -13 77.39 17
3 -3 -13 96.19 15.4
3 -3 -13 120.39 14.8
-3 3 13 138.59 14.2
-3 3 13 130.39 11
2 -3 -13 2.9 10.3
2 -3 -13 -16 12.7
2 -3 -13 4.2 8.3
-2 3 13 3.4 5.5
-2 3 13 10.4 7.7
1 -3 -13 4.3 9.6
1 -3 -13 9.6 9
1 -3 -13 1.6 11.7
-1 3 13 5.8 7.4
-1 3 13 4.6 5.4
0 -3 -13 23.5 11.5
0 -3 -13 25.9 11.1
0 -3 -13 14.7 9.8
0 3 13 13 8.3
0 3 13 5.2 5.5
0 3 13 16 10.5
-1 -3 -13 32.2 11.5
-1 -3 -13 13.3 11.4
1 3 13 -9.9 11.8
1 3 13 5.5 8.5
-2 -3 -13 14.6 11.1
-2 -3 -13 29.3 11.3
2 3 13 -0.3 14.5
2 3 13 -2.7 9.7
-3 -3 -13 9 11.4
-3 -3 -13 19.3 12.1
3 3 13 13.8 18.3
3 3 13 2.6 10.2
-4 -3 -13 20.1 12.2
-4 -3 -13 33.4 13.2
4 3 13 8.6 12.1
4 3 13 -3.6 21.1
8 -4 -13 -0.3 20.5
8 -4 -13 -38.2 22.2
-8 4 13 11.8 10.1
7 -4 -13 -16.5 35.8
7 -4 -13 -12.2 19.1
7 -4 -13 10.9 17.8
-7 4 13 4 9
-7 4 13 9.9 10
6 -4 -13 -6.8 17.7
6 -4 -13 -12.6 13.5
-6 4 13 13.6 8.1
-6 4 13 8.6 9.3
5 -4 -13 -13.1 11.7
5 -4 -13 -10.9 15.8
-5 4 13 -4.6 8.6
-5 4 13 8.2 7.9
4 -4 -13 18.4 11
4 -4 -13 7.2 15.4
4 -4 -13 3.1 12.4
-4 4 13 28 9.1
-4 4 13 28.8 7.2
3 -4 -13 63.39 15.1
3 -4 -13 60.69 11.6
3 -4 -13 67.89 12.8
-3 4 13 98.59 11.5
-3 4 13 92.09 13.6
2 -4 -13 8.5 10.3
2 -4 -13 -3 9.8
2 -4 -13 5.2 12
-2 4 13 4.6 8.1
-2 4 13 -4.6 6
1 -4 -13 4.6 10.3
1 -4 -13 -5.4 10.7
1 -4 -13 13 9.9
-1 4 13 -0.7 7.5
-1 4 13 1.5 6.1
0 -4 -13 4.2 11
0 -4 -13 15.7 11.8
0 -4 -13 -21.4 10.8
0 4 13 3.2 5.5
0 4 13 10.7 11.5
0 4 13 -6.4 8.8
-1 -4 -13 56.99 13.9
-1 -4 -13 41.7 11.6
1 4 13 36.1 15
1 4 13 34.2 10.3
-2 -4 -13 44.2 12.2
2 4 13 26.4 19.4
2 4 13 24.2 12.3
-3 -4 -13 24.7 12.3
-3 -4 -13 59.29 13.7
3 4 13 29.6 12.5
3 4 13 54.79 21.3
7 -5 -13 -34.7 19.9
7 -5 -13 12.6 18.1
-7 5 13 4.1 9.3
6 -5 -13 -17.8 16
6 -5 -13 -18.4 18.1
-6 5 13 1.3 8.7
-6 5 13 -13.5 9.3
5 -5 -13 3.6 13.3
5 -5 -13 -8.7 16.2
-5 5 13 25.4 9.6
-5 5 13 14.1 8.3
4 -5 -13 13.2 11.2
4 -5 -13 2.4 15
4 -5 -13 18.5 12.3
-4 5 13 24.6 9.1
-4 5 13 21.4 7.8
3 -5 -13 34.3 12.2
3 -5 -13 36.4 11
-3 5 13 35.4 9.8
-3 5 13 33 8.1
2 -5 -13 30.2 12.1
2 -5 -13 37.3 13.5
-2 5 13 43.7 9.5
-2 5 13 34.1 7.3
1 -5 -13 18.9 13.1
1 -5 -13 26.4 10.6
1 -5 -13 16.6 13.1
-1 5 13 14.9 9.3
-1 5 13 8.3 6.5
0 -5 -13 33 12.9
0 -5 -13 9.1 13.7
0 -5 -13 -1.6 11.6
0 5 13 3.9 9.4
0 5 13 6.4 14.7
-1 -5 -13 68.59 14
-1 -5 -13 35.7 12.6
-1 -5 -13 37.1 14.9
1 5 13 55.79 18
1 5 13 50.99 11.4
-2 -5 -13 44.8 13.1
-2 -5 -13 19.3 13.6
2 5 13 7.4 12.3
2 5 13 23.8 20.8
7 -6 -13 -38.9 20.5
-7 6 13 23.5 12
-7 6 13 -6.1 10.8
6 -6 -13 7.8 16.2
-6 6 13 1 9.6
-6 6 13 -17.3 10.5
5 -6 -13 20 14.6
5 -6 -13 -28.9 15.8
-5 6 13 -6 10.3
-5 6 13 0.2 8.9
4 -6 -13 28 17
4 -6 -13 24.3 13.4
-4 6 13 47.3 10.9
-4 6 13 41.5 10.1
3 -6 -13 30.7 15.1
3 -6 -13 14.9 13.6
-3 6 13 10.2 10.2
-3 6 13 16.3 8.4
2 -6 -13 29.2 14.5
2 -6 -13 16.2 14.5
-2 6 13 2.9 7.5
-2 6 13 7.9 9.8
1 -6 -13 40.2 13.8
1 -6 -13 36.2 15.7
1 -6 -13 51.19 15.1
-1 6 13 1.4 15.4
0 -6 -13 50.79 16.3
0 -6 -13 46.4 13.6
0 -6 -13 66.29 14.1
0 6 13 39 11.3
0 6 13 45.2 16.9
-1 -6 -13 13.6 16.4
-1 -6 -13 39.2 14
-1 -6 -13 19.2 13.2
1 6 13 -1.3 11.5
1 6 13 44.7 20.1
6 -7 -13 -37.4 18.6
6 -7 -13 -23.9 17.9
-6 7 13 1 11.8
-6 7 13 8.5 10.5
5 -7 -13 -5.9 15
5 -7 -13 -16.6 17
-5 7 13 -2.8 9.6
-5 7 13 15 11.9
4 -7 -13 -0.4 15.3
4 -7 -13 31.2 16.1
-4 7 13 24.9 11.2
-4 7 13 32 10.6
3 -7 -13 -5.8 15.1
3 -7 -13 51.59 17.2
-3 7 13 22.4 9.5
-3 7 13 20.3 11.5
2 -7 -13 -1 16.3
2 -7 -13 39.3 15.9
-2 7 13 -21.7 11.7
1 -7 -13 86.69 19.2
1 -7 -13 63.89 15.6
-1 7 13 27.3 18.8
-1 7 13 48.5 13.1
0 -7 -13 47.8 14.5
0 -7 -13 27.8 19.1
0 7 13 39.9 19.7
0 7 13 47.7 13.9
4 -8 -13 -1.5 18.7
4 -8 -13 10.8 18.3
-4 8 13 -0.7 11.2
-4 8 13 15.7 13.5
3 -8 -13 -0.2 17.5
-3 8 13 11.1 13.8
-3 8 13 20.9 11.1
1 9 -14 25.8 15.3
1 9 -14 -2.9 24.6
-1 -9 14 -2.2 12.1
-1 -9 14 14.2 8.7
0 9 -14 51.89 13.6
0 9 -14 -29.1 22.9
0 -9 14 33.8 12.8
0 -9 14 32.3 8.8
-1 9 -14 58.79 13.3
1 -9 14 63.29 9.8
1 -9 14 67.49 14.3
-2 9 -14 1.7 11
2 -9 14 11.3 12.8
2 -9 14 -11.5 8.1
-3 9 -14 9.8 10.6
3 -9 14 8.8 12.9
3 8 -14 72.49 32.1
3 8 -14 43.5 28.1
-3 -8 14 26.6 10
-3 -8 14 23.7 13.2
2 8 -14 36.8 23.6
2 8 -14 33.5 37.4
-2 -8 14 27.8 8.5
-2 -8 14 15.9 11.5
1 8 -14 -29.8 20.8
1 8 -14 22 13.2
-1 -8 14 27 11.4
-1 -8 14 7.9 8.1
0 8 -14 7.7 12.2
0 8 -14 -37.2 20
0 -8 14 3.2 7.5
0 -8 14 11.5 10.6
-1 8 -14 14.7 11.2
1 -8 14 2.6 7.6
1 -8 14 12.8 11.4
-2 8 -14 -4.4 10.1
2 -8 14 5 10.9
2 -8 14 16.8 8.2
-3 8 -14 -16.7 19.3
-3 8 -14 28.7 10.2
3 -8 14 17.8 11.1
-4 8 -14 -15.8 17.2
-4 8 -14 17.9 10.4
4 -8 14 8.7 12.1
4 7 -14 -25.6 32.5
4 7 -14 -21.5 27.1
-4 -7 14 8 13.3
-4 -7 14 -11.2 8.7
3 7 -14 30.2 28.7
3 7 -14 -4.6 23.2
-3 -7 14 12.8 10.3
-3 -7 14 17.2 8.2
2 7 -14 22.3 22
2 7 -14 15.1 22
-2 -7 14 14 11.4
-2 -7 14 14.7 8
1 7 -14 -6.8 20.1
-1 -7 14 10.7 7.1
-1 -7 14 -5 9.6
0 7 -14 16.1 10.8
0 7 -14 -26.2 17.8
0 -7 14 -14.9 9.2
0 -7 14 -3.6 7
-1 7 -14 33.1 11.3
-1 7 -14 9.2 19.8
1 -7 14 17.3 7.5
1 -7 14 18.4 10.3
-2 7 -14 54.89 10.7
-2 7 -14 26.8 18.5
2 -7 14 59.89 8.8
2 -7 14 55.59 10.9
-3 7 -14 2.6 15.8
-3 7 -14 18.6 9.7
3 -7 14 10 8.1
3 -7 14 8.7 10.1
-4 7 -14 51.69 11.1
-4 7 -14 33.6 16.3
4 -7 14 38.7 11.7
-5 7 -14 37.3 16
-5 7 -14 -4 9.3
5 -7 14 -6.4 11.8
5 6 -14 -21.7 28.3
5 6 -14 -2.8 31.1
-5 -6 14 12.7 9.4
4 6 -14 -4.3 23.4
4 6 -14 20.5 29.3
-4 -6 14 -13.2 7.4
-4 -6 14 -10 10.1
3 6 -14 7.8 22.1
3 6 -14 21.9 23.5
-3 -6 14 8 9.3
-3 -6 14 13.5 7.1
2 6 -14 178.38 32
2 6 -14 109.29 22.1
-2 -6 14 129.99 13.2
-2 -6 14 123.29 16.8
1 6 -14 -23.1 15.9
1 6 -14 -15.9 18.6
-1 -6 14 -4.3 6.5
-1 -6 14 9 9.3
0 6 -14 -4.4 17.2
0 -6 14 -4.1 6.2
0 -6 14 13.7 8.9
-1 6 -14 -31.4 16.1
-1 6 -14 -15.6 10.6
1 -6 14 -7.6 8.5
1 -6 14 4.9 7.1
-2 6 -14 -9.2 11.3
2 -6 14 15.7 9
2 -6 14 5.2 7
-3 6 -14 20.5 8.8
-3 6 -14 -12 14.1
3 -6 14 7.3 9.4
3 -6 14 15.9 6.9
-4 6 -14 19.7 9.1
-4 6 -14 53.69 16.8
4 -6 14 20.7 10.4
-5 6 -14 19.6 9.3
5 -6 14 30.2 11.1
6 5 -14 -3.8 32.9
6 5 -14 47.3 30.8
-6 -5 14 5.4 9.5
5 5 -14 5.9 28.6
5 5 -14 -14.1 25.2
-5 -5 14 3 7.9
4 5 -14 -1.6 20.7
4 5 -14 -9.1 24.3
-4 -5 14 -8.3 7
-4 -5 14 7.2 9.1
3 5 -14 -3.3 21.8
3 5 -14 20.1 19.7
-3 -5 14 20.5 6.8
-3 -5 14 38.1 9.7
2 5 -14 28 18.2
2 5 -14 44.5 16.6
-2 -5 14 32.1 7.1
-2 -5 14 28.9 9
1 5 -14 -3.7 15.5
1 5 -14 -8.8 15
-1 -5 14 -2.5 5.6
-1 -5 14 3.4 8.2
0 5 -14 2.8 16
0 -5 14 -0.3 6.3
0 -5 14 -10.9 8.3
-1 5 -14 -13.5 17.3
1 -5 14 -12.7 6.1
1 -5 14 3.5 8.2
-2 5 -14 -9 15.6
-2 5 -14 13.4 9.5
2 -5 14 8.9 9
2 -5 14 23.9 7
-3 5 -14 22.4 8.9
-3 5 -14 11.8 15.3
3 -5 14 20.2 9.3
3 -5 14 17.6 6.9
-4 5 -14 96.59 17.2
-4 5 -14 73.89 9.8
-5 5 -14 28.9 8.4
5 -5 14 8 10.7
6 4 -14 -10.7 25.4
6 4 -14 0.9 28.5
-6 -4 14 -9.6 8
5 4 -14 18 22.7
5 4 -14 -35.8 24.3
-5 -4 14 21.6 7.5
-5 -4 14 3.5 8.8
4 4 -14 -13.8 18
4 4 -14 -1 20.1
-4 -4 14 11.8 8.1
-4 -4 14 13.5 6.7
3 4 -14 29.9 18.1
3 4 -14 -5.5 16
-3 -4 14 2.5 7.6
-3 -4 14 -1.7 6.1
2 4 -14 -3 15.5
2 4 -14 -1.8 16
-2 -4 14 14 8
-2 -4 14 15.2 5.9
1 4 -14 -17.9 14.7
1 4 -14 -18.3 13.1
-1 -4 14 11.6 9
-1 -4 14 -0.3 5.6
0 4 -14 4.9 12.8
0 4 -14 10.3 15.4
0 -4 14 30.3 7.2
0 -4 14 19.3 8.5
1 -4 14 -3.4 5.9
1 -4 14 6.6 8.5
-2 4 -14 20.8 9.1
-2 4 -14 3 14.5
2 -4 14 10.4 8.3
2 -4 14 9.5 5.9
-3 4 -14 10.1 8.2
-3 4 -14 22 15.5
3 -4 14 -9.3 8.1
3 -4 14 18.5 6.9
-4 4 -14 27.4 15.1
-4 4 -14 14.8 8.1
4 -4 14 1.2 9.3
-5 4 -14 26 14.5
-5 4 -14 16.3 8.3
5 -4 14 16.4 10.9
7 3 -14 27.6 26.6
7 3 -14 -42.9 28.3
-7 -3 14 5.5 8.8
6 3 -14 97.49 27.2
6 3 -14 23.9 22.9
-6 -3 14 28 7.9
5 3 -14 17.2 20.7
5 3 -14 15.4 20.6
-5 -3 14 4.5 7
-5 -3 14 1.1 8
4 3 -14 38.3 20
4 3 -14 33.7 21.7
-4 -3 14 35.6 8.2
-4 -3 14 29.1 7.7
3 3 -14 131.79 21
3 3 -14 112.49 21.5
-3 -3 14 148.89 11.6
-3 -3 14 109.09 13.8
2 3 -14 25.2 15.2
2 3 -14 31.5 16
-2 -3 14 25.2 6.8
-2 -3 14 23.7 7.9
1 3 -14 -7.6 12.8
1 3 -14 18.7 16.6
-1 -3 14 22 7.9
-1 -3 14 23.3 6.1
0 3 -14 31.8 12.4
0 3 -14 34.6 17
0 -3 14 59.09 10
0 -3 14 69.99 9.6
-1 3 -14 2.8 10.5
-1 3 -14 19.5 14.8
1 -3 14 32.9 6.4
1 -3 14 14.5 7.4
-2 3 -14 112.49 18.3
-2 3 -14 131.69 15.3
2 -3 14 113.59 13.7
2 -3 14 89.09 10
-3 3 -14 13.1 14.1
-3 3 -14 4 7.2
3 -3 14 10.9 5.8
3 -3 14 3.2 9.1
-4 3 -14 7.9 6.8
4 -3 14 -2.5 8.9
-5 3 -14 31.4 14.8
5 -3 14 16.9 10.2
7 2 -14 -24.5 26.1
7 2 -14 -21.7 21.2
-7 -2 14 -17.5 8.7
6 2 -14 6.1 18.8
6 2 -14 -9.8 22.5
-6 -2 14 6.3 7.3
-6 -2 14 2.5 10.2
5 2 -14 8.2 20.8
5 2 -14 -10.4 17.3
-5 -2 14 4 6.3
-5 -2 14 4.7 8
4 2 -14 -2.7 14.7
4 2 -14 -5 17.5
-4 -2 14 -3.2 7.5
-4 -2 14 2.5 6.1
3 2 -14 17.1 16.1
3 2 -14 -2.1 14.7
-3 -2 14 4.2 5.4
-3 -2 14 18.9 7.4
2 2 -14 1.3 14.8
2 2 -14 -3.7 13.8
-2 -2 14 6.3 7.1
-2 -2 14 -6.2 5.6
1 2 -14 67.29 14.9
1 2 -14 72.69 17.1
-1 -2 14 89.09 9.9
-1 -2 14 115.19 13.2
0 2 -14 87.99 14.2
0 2 -14 95.19 18.5
0 -2 14 118.99 14
0 -2 14 121.39 10.2
-1 2 -14 -17.9 13.2
-1 2 -14 0.2 9.5
1 -2 14 -6.5 5
1 -2 14 10 7.4
-2 2 -14 29 9
-2 2 -14 45.4 14.1
2 -2 14 36.5 6
2 -2 14 27.8 8.4
-3 2 -14 43.3 12.2
-3 2 -14 32.4 7.3
3 -2 14 36.9 6.2
3 -2 14 23.2 9.4
-4 2 -14 12.6 13.7
4 -2 14 11.8 9.4
-5 2 -14 121.19 22.4
7 1 -14 15.9 24.9
7 1 -14 1.5 20.8
-7 -1 14 -2 7.8
6 1 -14 -9 21.3
6 1 -14 4.4 17.2
-6 -1 14 -1.9 7.1
-6 -1 14 -2.6 8.3
5 1 -14 47.4 22.4
5 1 -14 36.4 17.6
-5 -1 14 49.9 8.7
-5 -1 14 36 7.4
4 1 -14 17.9 17.3
4 1 -14 -5.9 14.7
-4 -1 14 9.1 5.7
-4 -1 14 11 7.5
3 1 -14 4.1 13.9
3 1 -14 -24.6 14.7
-3 -1 14 12.1 7.1
-3 -1 14 5.6 5.9
2 1 -14 16.2 14.6
2 1 -14 -17.9 12.5
-2 -1 14 14.3 7
-2 -1 14 17.7 5.5
1 1 -14 -0.9 13.4
1 1 -14 10.4 13
0 1 -14 -9.4 10.1
0 1 -14 -2 13.9
0 -1 14 -1.1 5.2
0 -1 14 1.9 7.2
-1 1 -14 21 9.7
-1 1 -14 22.8 13.9
1 -1 14 20.4 5.3
1 -1 14 13 8.2
-2 1 -14 7 9.4
-2 1 -14 11.9 12.3
2 -1 14 1.7 8.3
2 -1 14 -4 5.1
-3 1 -14 14.3 9.1
-3 1 -14 22.6 12.3
3 -1 14 15.7 8.8
-4 1 -14 23.9 8.9
-4 1 -14 26.5 14.1
4 -1 14 10.7 9.3
-5 1 -14 48.2 13.9
5 -1 14 5.2 10.7
8 0 -14 16.5 23.5
8 0 -14 37.8 28.5
-8 0 14 15.8 9.6
7 0 -14 0.3 22.8
7 0 -14 -26 15
7 0 -14 -12.5 18.6
-7 0 14 -3.3 8
6 0 -14 0.2 12.6
6 0 -14 2 21.1
6 0 -14 -5.9 17.4
-6 0 14 -7.9 7.3
-6 0 14 10.3 8.7
5 0 -14 -18.5 16.2
5 0 -14 24.6 20.4
5 0 -14 -4.4 9.7
-5 0 14 0.2 6.9
-5 0 14 13.5 7.9
4 0 -14 8.6 14.8
4 0 -14 2.5 8.5
4 0 -14 28.4 18.1
-4 0 14 13.1 7.9
-4 0 14 15.5 6.4
3 0 -14 120.09 17.8
3 0 -14 116.29 20.7
-3 0 14 135.99 13.4
-3 0 14 134.59 11.5
2 0 -14 229.48 24.4
2 0 -14 232.68 23.4
-2 0 14 242.98 13.3
-2 0 14 244.68 16.1
1 0 -14 20.8 13.4
1 0 -14 11.1 11.6
-1 0 14 12 7.3
-1 0 14 3.5 5
0 0 -14 -5.6 10.5
0 0 -14 -3.2 13
0 0 14 2.2 5.2
0 0 14 8.9 7.6
-1 0 -14 5.6 12.1
-1 0 -14 13.4 9.2
1 0 14 2 5
1 0 14 4.6 7.1
-2 0 -14 27.9 10.4
-2 0 -14 44.8 12.7
2 0 14 19.7 8.8
2 0 14 31.5 11.5
2 0 14 29.2 5.6
-3 0 -14 12.6 13.7
-3 0 -14 23.9 10.3
3 0 14 -0.8 14.8
3 0 14 -2.1 9.7
-4 0 -14 52.19 11
4 0 14 21.5 10.5
-5 0 -14 23.3 13.5
-5 0 -14 7.1 11.1
5 0 14 -0.5 11.7
8 -1 -14 -2 27.1
8 -1 -14 -32.4 18.2
-8 1 14 24.3 10
7 -1 -14 -9.7 17.5
7 -1 -14 10.5 19.3
-7 1 14 8.6 13.3
-7 1 14 22.3 8.6
6 -1 -14 3.1 18.2
6 -1 -14 -12 12.7
6 -1 -14 -0.3 20
-6 1 14 12.3 9.4
-6 1 14 6.6 6.7
5 -1 -14 15.6 19.2
5 -1 -14 -3 17.6
5 -1 -14 3 10.4
-5 1 14 5.7 7
-5 1 14 -7.8 8.2
4 -1 -14 -12.2 8.9
4 -1 -14 6.4 16.3
4 -1 -14 -18.7 13.7
-4 1 14 -8.2 6
-4 1 14 5.4 7.8
3 -1 -14 -2.8 12.8
3 -1 -14 -10.1 15.3
3 -1 -14 -2.5 7.8
-3 1 14 3.4 5.9
-3 1 14 -0.2 7.4
2 -1 -14 58.69 14.5
2 -1 -14 89.49 11.6
2 -1 -14 91.19 18
-2 1 14 99.09 13.5
-2 1 14 99.79 10.1
1 -1 -14 38.1 13.2
1 -1 -14 46.1 14
1 -1 -14 38.7 7.4
-1 1 14 41.4 6.5
-1 1 14 48 8.1
-1 1 14 37.9 8.7
0 -1 -14 -12.6 12.8
0 -1 -14 -7.8 10.4
0 1 14 -1.2 5.4
0 1 14 -0.2 7.4
-1 -1 -14 39.3 11.8
-1 -1 -14 47.1 13.3
1 1 14 42.3 11.3
1 1 14 42.7 6.1
1 1 14 16.3 8.3
-2 -1 -14 10.3 11.6
-2 -1 -14 -3.4 10.4
2 1 14 -12.6 5.1
2 1 14 3 8.4
2 1 14 4.6 12.1
-3 -1 -14 14.5 10.4
-3 -1 -14 21.1 13
3 1 14 -11.8 14.9
3 1 14 -9.9 9
-4 -1 -14 25.2 11.5
-4 -1 -14 31.1 13.4
4 1 14 11 20.3
4 1 14 -2.9 10.5
8 -2 -14 10.8 24.4
8 -2 -14 -16 21
-8 2 14 -0.9 9.4
7 -2 -14 -38.5 21.4
7 -2 -14 -23.5 19.6
7 -2 -14 -2.7 17.4
-7 2 14 6.8 8.2
-7 2 14 0 11.2
6 -2 -14 -14.1 13.3
-6 2 14 -1.3 7.3
-6 2 14 2.2 10.1
5 -2 -14 40 12.2
5 -2 -14 19.3 18.1
5 -2 -14 77.99 18.1
-5 2 14 66.49 10.5
-5 2 14 51.19 8.2
4 -2 -14 15.9 14.6
4 -2 -14 28.9 17.8
4 -2 -14 -0.4 9.4
-4 2 14 26.3 9.3
-4 2 14 28.2 7.3
3 -2 -14 -1.3 15.4
3 -2 -14 15.3 8.1
3 -2 -14 11.5 13.8
-3 2 14 26.4 8.7
-3 2 14 20.2 6.6
2 -2 -14 -19.3 13.6
2 -2 -14 -5.3 11.4
2 -2 -14 -6.9 7.9
-2 2 14 -2.3 7.7
-2 2 14 9.3 5.8
1 -2 -14 6.7 8
1 -2 -14 -8.4 11.6
1 -2 -14 -22.7 13
-1 2 14 -0.8 7.4
-1 2 14 -3.6 5.8
-1 2 14 -10.1 8.6
0 -2 -14 8.3 8.7
0 -2 -14 9.3 12.5
0 -2 -14 7.8 11.2
0 2 14 1.5 7.5
0 2 14 16.5 10.1
0 2 14 0.9 5.6
-1 -2 -14 36.4 12.1
-1 -2 -14 33.2 12.6
1 2 14 23.1 9.1
1 2 14 28.3 5.6
1 2 14 -3.2 11.8
-2 -2 -14 18.4 10.8
-2 -2 -14 26 12.8
2 2 14 19.4 14.1
-3 -2 -14 25 11.3
3 2 14 -5.3 10.3
3 2 14 -29.6 17.2
-4 -2 -14 14.9 12.5
-4 -2 -14 54.39 14.5
4 2 14 16.3 11.9
4 2 14 -3.5 21
8 -3 -14 -40.6 24.1
8 -3 -14 -19.8 19.7
-8 3 14 21.8 10.7
7 -3 -14 -20 21.4
7 -3 -14 -28.8 16.8
7 -3 -14 -10.9 18.8
-7 3 14 -3 9
-7 3 14 -6.3 10.8
6 -3 -14 22 17.5
6 -3 -14 25.6 15.3
6 -3 -14 -3.5 20.9
-6 3 14 30.3 8.9
5 -3 -14 -3.7 11.9
5 -3 -14 -19.4 18.1
-5 3 14 12.6 9.2
-5 3 14 -16.6 7.1
4 -3 -14 19.8 11
4 -3 -14 9.8 16.1
4 -3 -14 3.4 13.7
-4 3 14 20.7 7
-4 3 14 30.4 9.4
3 -3 -14 -6.2 15
3 -3 -14 4.6 12.1
3 -3 -14 27.9 10.1
-3 3 14 1.7 8
-3 3 14 9 7.3
2 -3 -14 15.2 9.7
2 -3 -14 18.4 14.1
2 -3 -14 11.1 11.8
-2 3 14 2.7 6.2
-2 3 14 9.6 8.6
1 -3 -14 29.2 12.7
1 -3 -14 28.6 10.5
1 -3 -14 34.6 13
-1 3 14 29 9.1
-1 3 14 36.8 10.7
-1 3 14 27.4 6.9
0 -3 -14 42.7 13
0 -3 -14 75.39 12.1
0 3 14 48.8 6.8
0 3 14 63.89 12.8
0 3 14 39.7 9.9
-1 -3 -14 47.6 12.6
-1 -3 -14 49.8 13.7
1 3 14 19 9.3
1 3 14 37.7 14
-2 -3 -14 11.3 11.4
-2 -3 -14 25.8 12.7
2 3 14 -7.8 16.9
2 3 14 -9.6 10.2
-3 -3 -14 8.1 13.2
-3 -3 -14 11.5 11.8
3 3 14 2.6 20.2
3 3 14 16.2 11.8
7 -4 -14 -7.8 18
-7 4 14 7 9.7
-7 4 14 1.3 11.4
6 -4 -14 -24.9 15.5
-6 4 14 11.5 10.1
-6 4 14 20.4 8.9
5 -4 -14 -28.8 14.6
5 -4 -14 -34.5 16.7
5 -4 -14 -6.6 13.7
-5 4 14 -0.2 9.2
-5 4 14 7.3 8.3
4 -4 -14 -2.7 12.6
4 -4 -14 24.6 11.8
4 -4 -14 -0.2 17
-4 4 14 32.3 9.1
-4 4 14 21.4 7.7
3 -4 -14 32.3 11.7
3 -4 -14 23.8 14.7
3 -4 -14 26.8 12.1
-3 4 14 35 9
-3 4 14 39.1 8.4
2 -4 -14 17.7 11.6
2 -4 -14 -1.3 11
2 -4 -14 10.1 13.1
-2 4 14 -16.6 6.6
-2 4 14 4.2 8.5
1 -4 -14 16.4 13
1 -4 -14 5.3 12.2
1 -4 -14 23.7 12
-1 4 14 8.5 7
-1 4 14 -6.9 11.5
-1 4 14 5 8.9
0 -4 -14 68.79 14
0 -4 -14 58.69 15.2
0 -4 -14 73.09 13.3
0 4 14 43.4 14.5
0 4 14 33.1 10.3
-1 -4 -14 58.29 14
-1 -4 -14 26 12.1
1 4 14 -4.4 10.4
1 4 14 -20.3 17.2
-2 -4 -14 29.3 12.9
-2 -4 -14 19.8 13.9
2 4 14 -0.2 18.6
2 4 14 -5.2 11.2
-3 -4 -14 120.89 22.2
-3 -4 -14 83.49 16.2
3 4 14 71.39 24.8
3 4 14 65.39 13.9
7 -5 -14 -12 21.7
7 -5 -14 -12.9 19.4
-7 5 14 -21.5 11.9
-7 5 14 -5 10.2
6 -5 -14 -21 19.5
6 -5 -14 -16.8 16.7
-6 5 14 2.7 9.7
-6 5 14 27.1 11.7
5 -5 -14 24.3 15.2
5 -5 -14 4.5 17.9
5 -5 -14 -8.1 19.3
-5 5 14 32.2 10.6
-5 5 14 20.7 9
4 -5 -14 37.5 17.5
4 -5 -14 17.7 11.7
4 -5 -14 18.2 13.2
-4 5 14 27.6 11.2
-4 5 14 33.7 9.2
3 -5 -14 33.1 13.8
3 -5 -14 11.9 11.7
3 -5 -14 -9.6 14.5
-3 5 14 3.6 8.3
-3 5 14 -16.5 9.4
2 -5 -14 -2.1 14.4
2 -5 -14 10.8 14.6
2 -5 -14 13.2 11.5
-2 5 14 3.2 9.4
-2 5 14 6.3 8.2
1 -5 -14 -0.1 14.3
1 -5 -14 36.1 14.5
1 -5 -14 33.4 12.5
-1 5 14 3.4 6.9
-1 5 14 13.8 15.1
-1 5 14 16.7 9.7
0 -5 -14 34.9 13.6
0 -5 -14 34.6 15.6
0 5 14 26.3 17.1
0 5 14 13.6 10.9
-1 -5 -14 36.5 14.5
-1 -5 -14 3.8 12.9
1 5 14 -1.5 11.6
1 5 14 -16.2 18.6
-2 -5 -14 24 13.9
-2 -5 -14 39.6 15.1
2 5 14 -1.3 13.2
2 5 14 -33.8 22
6 -6 -14 -14.4 18.7
6 -6 -14 6.9 20.4
-6 6 14 -0.3 11.5
-6 6 14 -3.7 10.4
5 -6 -14 4 15.6
5 -6 -14 -22.5 18
-5 6 14 40.9 10.7
-5 6 14 15.5 11
4 -6 -14 45.2 18.2
4 -6 -14 3 14.8
-4 6 14 21.5 11.1
-4 6 14 21.3 9.5
3 -6 -14 7.8 15.5
3 -6 -14 -4.5 15
3 -6 -14 28.4 13.9
-3 6 14 -16.3 10.5
-3 6 14 9.7 9.1
2 -6 -14 -8.6 16.1
2 -6 -14 -4.2 15.3
-2 6 14 -4.1 8.3
-2 6 14 4.5 10.8
1 -6 -14 75.89 16.2
1 -6 -14 51.39 17.7
-1 6 14 55.89 18
0 -6 -14 50.79 18
0 -6 -14 38 14.4
0 -6 -14 51.79 15.7
0 6 14 44 19.9
5 -7 -14 -2.1 18.8
5 -7 -14 8.8 16
-5 7 14 -11.9 11
-5 7 14 -9 12.5
4 -7 -14 21 18.4
4 -7 -14 13.5 17.1
-4 7 14 -9.1 10.8
-4 7 14 12.4 13.2
3 -7 -14 21.4 17.9
3 -7 -14 27.5 17.8
-3 7 14 -1.9 12.5
-3 7 14 3.7 9.5
2 -7 -14 44.8 17.1
2 -7 -14 8 19.2
-2 7 14 -10.3 12.6
2 8 -15 -9.2 26
-2 -8 15 16.7 9.4
-2 -8 15 -3.2 12
1 8 -15 -3.2 13
1 8 -15 -5.8 22.9
-1 -8 15 3.5 8.3
-1 -8 15 5.5 11.4
0 8 -15 10.4 14.2
0 8 -15 -17.6 21.2
0 -8 15 -0.3 12.1
0 -8 15 15.4 8.5
-1 8 -15 19.6 13.3
1 -8 15 -2.8 8.2
1 -8 15 -11.4 11.6
-2 8 -15 7.3 11.9
2 -8 15 10.6 9.2
2 -8 15 3.7 11.8
-3 8 -15 16.7 11.1
3 -8 15 -6.8 11.9
3 7 -15 26.7 26.4
3 7 -15 46.5 27
-3 -7 15 35.1 12
-3 -7 15 39.5 9.1
2 7 -15 -14.6 22.7
2 7 -15 -29.5 23
-2 -7 15 8.7 11.1
-2 -7 15 3.9 7.8
1 7 -15 -22.9 20.9
-1 -7 15 11.3 10.7
-1 -7 15 -3.1 7.4
0 7 -15 11.8 11.9
0 7 -15 -32.6 20.2
0 -7 15 -0.2 7.9
0 -7 15 1.6 10.6
-1 7 -15 22.5 12
1 -7 15 -9.9 7.7
1 -7 15 -3.3 10.6
-2 7 -15 8.1 10.9
2 -7 15 1.7 10.5
2 -7 15 8.1 8.2
-3 7 -15 -1 10.1
-3 7 -15 -10.4 17.2
3 -7 15 18.4 11.2
3 -7 15 10.3 8.8
-4 7 -15 -5.3 10.7
-4 7 -15 40.2 17.2
4 -7 15 -4.6 11.5
4 6 -15 -44.8 27.1
4 6 -15 30.2 27.4
-4 -6 15 17.6 8.8
-4 -6 15 24.9 11.1
3 6 -15 66.29 26
3 6 -15 73.39 24.2
-3 -6 15 64.99 9.6
-3 -6 15 83.39 12.2
2 6 -15 26.8 21.5
2 6 -15 29.7 22.6
-2 -6 15 38.8 8.3
-2 -6 15 49.2 11
1 6 -15 -21.7 19.8
-1 -6 15 -1.1 7.1
-1 -6 15 12 9.6
0 6 -15 1.7 19
0 -6 15 4.6 10.6
0 -6 15 6.9 6.9
-1 6 -15 -31.3 17.7
-1 6 -15 -5.5 11.8
1 -6 15 -2.8 9.7
1 -6 15 -6.4 7.4
-2 6 -15 -10.5 11.4
-2 6 -15 -27.9 17.1
2 -6 15 5.5 7.7
2 -6 15 1.4 10
-3 6 -15 22.2 10.2
-3 6 -15 19.2 16.2
3 -6 15 39 8.6
3 -6 15 12.4 10.1
-4 6 -15 56.69 11.2
4 -6 15 52.29 13.2
5 5 -15 1.7 27.6
5 5 -15 2.6 27.8
-5 -5 15 -15.5 8.5
4 5 -15 12.7 24.5
4 5 -15 -25.3 22.9
-4 -5 15 0.6 10.2
-4 -5 15 -2.9 7.5
3 5 -15 15.6 22.2
3 5 -15 12.5 20.8
-3 -5 15 7 9.7
-3 -5 15 9.4 7.6
2 5 -15 16 19.4
2 5 -15 23.2 21.3
-2 -5 15 26.5 9.3
-2 -5 15 4 7.3
1 5 -15 -6 16.3
-1 -5 15 31.1 9.6
-1 -5 15 7.4 6.5
0 5 -15 -17.9 16.9
0 -5 15 24 7.5
0 -5 15 17.3 9.1
-1 5 -15 8.6 17.7
1 -5 15 7.2 7.6
1 -5 15 11.9 9.4
-2 5 -15 -9.2 16.1
-2 5 -15 -13.1 10.4
2 -5 15 9.9 9.5
2 -5 15 -6 7.5
-3 5 -15 6.1 10
-3 5 -15 -12.4 14.5
3 -5 15 -2.2 10.1
3 -5 15 21 7.9
-4 5 -15 38.8 15.2
-4 5 -15 -9.3 9.1
4 -5 15 -0.8 10.1
-5 5 -15 -12.6 9.1
5 -5 15 24.6 12.1
6 4 -15 29.7 30.2
6 4 -15 32.5 26.7
-6 -4 15 5 9
5 4 -15 5.7 22.9
5 4 -15 -1 25
-5 -4 15 -2 10.1
-5 -4 15 2 7.7
4 4 -15 2.7 20.4
4 4 -15 -1.4 21.5
-4 -4 15 9.6 9.7
-4 -4 15 12.8 7.4
3 4 -15 -2 20.1
3 4 -15 -0.6 19.1
-3 -4 15 24.5 9.2
-3 -4 15 18.1 7.1
2 4 -15 -29.5 16.5
2 4 -15 5.7 17
-2 -4 15 11.5 6.9
-2 -4 15 22.9 9.5
1 4 -15 -20.4 18.1
1 4 -15 5.7 15
-1 -4 15 23.2 9.1
-1 -4 15 6.5 6.1
0 4 -15 -13.2 13.3
0 4 -15 -3 17.2
0 -4 15 12.6 8.9
0 -4 15 12.7 6.8
-1 4 -15 2.4 17.7
1 -4 15 2.4 6.2
1 -4 15 7.6 8.7
-2 4 -15 -12 9.7
-2 4 -15 -16.3 14.8
2 -4 15 2.7 9.5
2 -4 15 -8.7 6.6
-3 4 -15 9.2 14.6
-3 4 -15 22.1 9.2
3 -4 15 8.7 7.2
3 -4 15 -8.8 9.8
-4 4 -15 46.1 15.7
-4 4 -15 30.9 9.3
4 -4 15 27.3 10.7
-5 4 -15 34.3 16.4
5 -4 15 6.9 11.1
6 3 -15 -0.9 23
6 3 -15 -7.7 27
-6 -3 15 0.8 8.6
5 3 -15 -6.5 23.3
5 3 -15 -17.2 20.5
-5 -3 15 5.4 7.6
-5 -3 15 16.3 9.4
4 3 -15 -0.4 20.3
4 3 -15 5 20.9
-4 -3 15 -2.5 6.7
-4 -3 15 10 9.3
3 3 -15 38.4 21.3
3 3 -15 52.99 20.6
-3 -3 15 53.79 10.1
2 3 -15 -10.5 16.1
2 3 -15 -6 15.2
-2 -3 15 4.3 5.9
-2 -3 15 7.5 8.5
1 3 -15 -6.1 15.1
1 3 -15 -11.7 13.5
-1 -3 15 22.6 8.9
-1 -3 15 16.5 6.5
0 3 -15 -20.2 15.9
0 3 -15 -10 12.5
0 -3 15 -13.2 8.3
0 -3 15 -9 6.2
-1 3 -15 1.9 15.2
1 -3 15 21.8 7.1
1 -3 15 -1.3 8.4
-2 3 -15 11.9 14.1
-2 3 -15 21 9.9
2 -3 15 5.5 6.4
2 -3 15 3.2 8.3
-3 3 -15 57.89 15
-3 3 -15 27.5 9.2
3 -3 15 46.3 11.4
3 -3 15 37.9 7.7
-4 3 -15 23.6 14.5
4 -3 15 5.2 10.5
-5 3 -15 49.9 15.5
5 -3 15 38.5 11.5
7 2 -15 -30.7 27.8
7 2 -15 31.5 26.4
-7 -2 15 11.9 9.5
6 2 -15 -19.2 24.1
6 2 -15 21.3 20.7
-6 -2 15 33.8 8.3
5 2 -15 4.5 22.7
5 2 -15 1.5 19.4
-5 -2 15 25.2 9.7
-5 -2 15 1.7 6.9
4 2 -15 5.5 17.4
4 2 -15 18.9 20.1
-4 -2 15 0.3 6.1
-4 -2 15 12.4 9.3
3 2 -15 -25 17.9
3 2 -15 3.8 16
-3 -2 15 0.2 9.2
-3 -2 15 2.4 6.1
2 2 -15 -5.3 14.4
2 2 -15 19.8 16.7
-2 -2 15 34.3 10
-2 -2 15 22.8 6.9
1 2 -15 4 12.9
1 2 -15 25.7 17.9
-1 -2 15 25.2 9.1
-1 -2 15 18.9 6.9
0 2 -15 8.2 15.3
0 2 -15 12.6 12.3
0 -2 15 50.09 9.7
0 -2 15 41.2 7
-1 2 -15 15.2 10.5
-1 2 -15 -9.2 15
1 -2 15 -2.8 5.9
1 -2 15 9.6 8.4
-2 2 -15 8.5 9.5
-2 2 -15 -2.5 13.4
2 -2 15 9.6 6.2
2 -2 15 3.3 8.4
-3 2 -15 18.6 7.8
-3 2 -15 24 14.4
3 -2 15 -7.6 9.8
3 -2 15 4.1 6.1
-4 2 -15 10.1 14.6
4 -2 15 7.6 10.6
-5 2 -15 60.59 16.2
5 -2 15 0.2 11.2
7 1 -15 22.4 27.5
7 1 -15 -37.7 21.4
-7 -1 15 8 9
6 1 -15 -5.5 23.2
6 1 -15 -7.8 20.3
-6 -1 15 -8.4 9.6
-6 -1 15 1.1 7.6
5 1 -15 -5 17.9
5 1 -15 7.1 23.1
-5 -1 15 21 9.5
-5 -1 15 1.7 6.7
4 1 -15 24.3 16.9
4 1 -15 25.5 19.1
-4 -1 15 19.8 9.7
-4 -1 15 18.7 6.7
3 1 -15 -29.9 16
3 1 -15 -1.1 15.7
-3 -1 15 19.5 9
-3 -1 15 9 6.4
2 1 -15 43.8 16.8
2 1 -15 37.5 17.6
-2 -1 15 89.39 13.8
-2 -1 15 84.69 11.4
1 1 -15 5.2 16
1 1 -15 10.6 14
-1 -1 15 24.9 6.6
-1 -1 15 23.8 8.8
0 1 -15 -2.3 13.8
0 1 -15 -6.8 11.1
0 -1 15 8.8 7.9
0 -1 15 18.9 6.1
-1 1 -15 43.2 10.7
-1 1 -15 57.99 15.4
1 -1 15 58.89 7.3
1 -1 15 57.39 10.5
-2 1 -15 25.1 11
-2 1 -15 13.6 13.4
2 -1 15 -1 5.8
2 -1 15 8.6 8.7
-3 1 -15 25 10.3
-3 1 -15 36 14.7
3 -1 15 16.2 10
-4 1 -15 33.8 15.5
-4 1 -15 9.3 10.4
4 -1 15 3.4 11
7 0 -15 -42.9 21.6
7 0 -15 -0.7 26.3
-7 0 15 7.9 9
6 0 -15 -35.3 19.4
6 0 -15 11.1 22.8
-6 0 15 7.7 8.2
-6 0 15 7.5 10.6
5 0 -15 -30.3 20.8
5 0 -15 -11.6 16.8
-5 0 15 -0.1 7.6
-5 0 15 -4.6 9.8
4 0 -15 10 18.5
4 0 -15 8.1 16.3
-4 0 15 9.1 7.6
-4 0 15 10.1 9.5
3 0 -15 23.6 14.8
3 0 -15 22.8 18.3
-3 0 15 17.3 7.3
-3 0 15 20.2 8.6
2 0 -15 50.69 16.3
2 0 -15 53.69 18.7
-2 0 15 86.39 9.4
-2 0 15 88.29 11.7
1 0 -15 2.9 14.4
1 0 -15 -1.9 14.8
-1 0 15 8.5 7.7
-1 0 15 8.3 6.2
0 0 -15 -10.1 11.4
0 0 -15 18.1 14.3
0 0 15 24.3 6.4
0 0 15 12.6 8.4
-1 0 -15 35.7 16
-1 0 -15 42.7 13
1 0 15 32.6 6.1
1 0 15 28.3 9.7
-2 0 -15 19.5 15.3
-2 0 -15 11.8 12.5
2 0 15 -9.7 5.4
2 0 15 0.5 8.7
-3 0 -15 28 11.8
-3 0 -15 34.8 14.4
3 0 15 20.2 9.9
-4 0 -15 43.6 14.4
-4 0 -15 7.5 11
4 0 15 16.3 11.3
7 -1 -15 -14.8 21.2
7 -1 -15 -14.8 25.4
-7 1 15 22.4 9.2
6 -1 -15 -39.2 20.7
6 -1 -15 -17.2 18
-6 1 15 1.8 8
-6 1 15 -5 10.2
5 -1 -15 4 20
5 -1 -15 15.8 17.5
-5 1 15 31.6 10.4
-5 1 15 29.9 8.1
4 -1 -15 -14.2 15.6
4 -1 -15 -14.4 18.2
-4 1 15 22.4 7.6
-4 1 15 -1 9.3
3 -1 -15 -10.1 15.9
3 -1 -15 -7.9 16
-3 1 15 6 6.9
-3 1 15 -0.5 9
2 -1 -15 33.6 16.2
2 -1 -15 26.8 16.4
-2 1 15 27.6 7
-2 1 15 38.2 9.4
1 -1 -15 -10.1 14.4
1 -1 -15 3.2 13.5
-1 1 15 -3.2 8.1
-1 1 15 -7.2 6
0 -1 -15 1.6 12.5
0 -1 -15 -2.5 12.1
0 1 15 4.1 9.1
0 1 15 -4 6.2
-1 -1 -15 44.2 13
-1 -1 -15 14.2 11.4
1 1 15 33.4 9.6
1 1 15 17.6 6
-2 -1 -15 31.7 14.1
-2 -1 -15 27.2 11.3
2 1 15 4.4 9.9
-3 -1 -15 16.8 13.9
-3 -1 -15 23.6 12.1
3 1 15 -1.4 10.2
-4 -1 -15 63.09 13.6
4 1 15 25 12.6
7 -2 -15 19.6 24.6
7 -2 -15 -17.6 22
7 -2 -15 -19.1 20.2
-7 2 15 21 11.9
-7 2 15 21.5 9.6
6 -2 -15 -19.7 21.4
6 -2 -15 14.1 19
6 -2 -15 25 13.5
-6 2 15 24.5 11.2
-6 2 15 19 8.6
5 -2 -15 27 18.6
5 -2 -15 49.7 11.8
5 -2 -15 -13.1 18.7
-5 2 15 64.89 11.1
-5 2 15 32.2 8.6
4 -2 -15 64.89 19.5
4 -2 -15 60.89 10.4
4 -2 -15 62.69 19.9
-4 2 15 71.49 10.9
-4 2 15 66.19 9.6
3 -2 -15 28 9.1
3 -2 -15 20.7 16.3
3 -2 -15 25.1 18.8
-3 2 15 48.5 9.6
-3 2 15 43.1 8.1
2 -2 -15 -4.1 8.3
2 -2 -15 -5.8 13.6
-2 2 15 7.4 8.9
1 -2 -15 7 13.9
1 -2 -15 -0.2 8.7
1 -2 -15 4.6 13.7
-1 2 15 7.2 8.5
-1 2 15 11.7 6.8
-1 2 15 0 10
0 -2 -15 17.1 12.2
0 -2 -15 24.2 12.9
0 2 15 -3.9 9.1
0 2 15 6.9 11.4
0 2 15 2.2 6.4
-1 -2 -15 25.8 13
-1 -2 -15 19.8 12.9
1 2 15 -2.4 14.5
1 2 15 15.6 10.2
-2 -2 -15 12.2 12.5
2 2 15 13.1 10.4
-3 -2 -15 31.2 12.9
-3 -2 -15 53.09 14.6
3 2 15 4.9 10.9
7 -3 -15 38 18.5
7 -3 -15 -10.8 21.7
7 -3 -15 -22.3 23.3
-7 3 15 22.6 12
-7 3 15 15.6 9.8
6 -3 -15 -10.8 21.2
6 -3 -15 -10 15.8
-6 3 15 10.6 8.5
-6 3 15 -20.9 10.6
5 -3 -15 -7.4 12.2
5 -3 -15 -17.4 19.6
-5 3 15 14.9 10.3
-5 3 15 -3.4 8.1
4 -3 -15 -28.9 16.2
4 -3 -15 -18 9.9
4 -3 -15 -24.4 16.3
-4 3 15 -8.6 7.8
-4 3 15 3.7 9.5
3 -3 -15 3.6 16.3
3 -3 -15 28.1 10.5
3 -3 -15 5.4 14.8
-3 3 15 17.4 9.5
-3 3 15 30.2 8.2
2 -3 -15 15.6 12.8
2 -3 -15 12.3 14.7
2 -3 -15 11.1 10.2
-2 3 15 22.6 9.5
-2 3 15 6.7 7.6
1 -3 -15 0.7 12.6
1 -3 -15 5.5 10.7
1 -3 -15 26.9 13.3
-1 3 15 12.6 11
-1 3 15 6.3 7.2
-1 3 15 2.8 9.1
0 -3 -15 60.19 11.9
0 -3 -15 56.89 15
0 3 15 74.29 10.6
0 3 15 62.99 10.6
0 3 15 62.69 14.1
-1 -3 -15 24.5 13.6
-1 -3 -15 28.4 13.9
1 3 15 34.9 11.5
1 3 15 36.5 15.7
-2 -3 -15 7.5 12.5
2 3 15 18.5 12
2 3 15 12.1 21
-3 -3 -15 50.09 15.7
7 -4 -15 -15 18.8
7 -4 -15 -21.4 24.6
-7 4 15 -6.3 10.9
-7 4 15 -11.4 12.8
6 -4 -15 60.39 18.1
6 -4 -15 49.3 23.1
-6 4 15 71.09 11.1
-6 4 15 91.69 13.2
5 -4 -15 -2.6 15.6
-5 4 15 -12.6 10.5
-5 4 15 21 9.2
4 -4 -15 8.5 12.1
4 -4 -15 -27.1 17.4
-4 4 15 14.1 10
-4 4 15 18.2 8.4
3 -4 -15 3.8 13.9
3 -4 -15 27.7 12.7
3 -4 -15 -20.6 15.2
-3 4 15 -11.1 7.9
-3 4 15 18.9 9.8
2 -4 -15 7 14.4
2 -4 -15 8.5 12.6
2 -4 -15 14.4 13.2
-2 4 15 -4.8 9.2
-2 4 15 6.3 8.9
1 -4 -15 4.9 14.3
1 -4 -15 15.9 12.8
1 -4 -15 31.3 13.1
-1 4 15 -0.2 7.2
-1 4 15 -10 9.9
-1 4 15 -22.7 12.8
0 -4 -15 25.3 15.2
0 -4 -15 59.09 15.4
0 4 15 54.99 11.7
0 4 15 86.39 17.5
-1 -4 -15 36.4 13.9
1 4 15 4.7 18.7
1 4 15 22.6 11.3
-2 -4 -15 19.5 14.1
-2 -4 -15 56.29 16.1
2 4 15 -7.7 12.9
2 4 15 -8.9 21.3
6 -5 -15 -35.5 21.1
6 -5 -15 -8.3 17.9
-6 5 15 9.5 12
-6 5 15 25.5 11
5 -5 -15 -28.9 19.6
5 -5 -15 10.4 15.7
-5 5 15 2.7 9.8
-5 5 15 -0.5 11.4
4 -5 -15 6.3 14.5
4 -5 -15 14.4 14
4 -5 -15 -22.9 16.9
-4 5 15 -6.4 9.5
-4 5 15 13.5 10.8
3 -5 -15 27.8 15.6
3 -5 -15 -6.3 15.8
3 -5 -15 40.4 14.3
-3 5 15 15.1 10.5
-3 5 15 17.8 9.7
2 -5 -15 -0.7 15.6
2 -5 -15 2.8 15.2
-2 5 15 4.8 10.6
-2 5 15 13.4 8.9
1 -5 -15 64.39 16.2
1 -5 -15 42.9 16.1
-1 5 15 14.3 15.7
-1 5 15 33.7 11.3
0 -5 -15 -3.3 16.6
0 -5 -15 44.2 15.9
0 5 15 18.1 20.1
0 5 15 4.6 12.1
-1 -5 -15 24.4 14.2
1 5 15 31.1 21.8
1 5 15 12.2 12.9
5 -6 -15 27.2 16.7
5 -6 -15 -14.3 20.1
-5 6 15 8.1 12.9
-5 6 15 14 11.1
4 -6 -15 -22.2 17.9
4 -6 -15 9.6 17.7
-4 6 15 20.4 10.9
-4 6 15 1.1 13
3 -6 -15 27.6 17.5
3 -6 -15 43.3 18.7
-3 6 15 10 11.9
-3 6 15 14.7 9.8
2 -6 -15 28 19.2
2 -6 -15 -1.4 17.4
-2 6 15 1.7 11.5
1 -6 -15 42.3 18.1
1 -6 -15 36 17.4
1 -6 -15 70.79 17.5
-1 6 15 26.2 12.2
-1 6 15 13.2 18
1 8 -16 4.9 14.5
0 8 -16 -30.2 24.1
0 8 -16 19.7 16.2
0 -8 16 10.5 8.9
0 -8 16 3.2 13.4
-1 8 -16 -7.1 13.9
1 -8 16 -1.4 9.5
1 -8 16 24.7 13
2 7 -16 -10.3 26.1
-2 -7 16 26.4 9.4
-2 -7 16 29.3 12.7
1 7 -16 -36.2 23.1
-1 -7 16 1.8 11.9
-1 -7 16 5.1 8.7
0 7 -16 23.2 13.4
0 -7 16 -10.4 7.9
0 -7 16 -13 11.4
-1 7 -16 0.1 13.1
-1 7 -16 -23.4 20.7
1 -7 16 -16.8 11.5
1 -7 16 -10 8.7
-2 7 -16 2.5 12
2 -7 16 -11.3 9
2 -7 16 -6.5 11.2
-3 7 -16 -11.1 18.2
-3 7 -16 -3.1 11.7
3 -7 16 23 9.5
3 -7 16 11 12.1
4 6 -16 -0.3 28.7
4 6 -16 -36.4 28.1
-4 -6 16 -19.3 11.6
-4 -6 16 -18.2 8.9
3 6 -16 -14.6 25.6
3 6 -16 -30.2 25.8
-3 -6 16 16.7 11.7
-3 -6 16 6.4 8.6
2 6 -16 -29.5 21.9
2 6 -16 -11.1 22
-2 -6 16 -4.1 7.6
-2 -6 16 4.4 11.1
1 6 -16 -36.9 21.6
-1 -6 16 -9.3 8
-1 -6 16 5.2 11.2
0 6 -16 -15.1 21.3
0 -6 16 1.5 11.5
0 -6 16 9.3 7.6
-1 6 -16 -6.1 11.6
-1 6 -16 -38 20.3
1 -6 16 15 8.7
1 -6 16 26.1 11.3
-2 6 -16 -6.2 18.8
-2 6 -16 15.4 12.3
2 -6 16 10.9 8.4
2 -6 16 -2.9 10.6
-3 6 -16 -14.9 10.7
-3 6 -16 -4.1 17
3 -6 16 17.8 11.5
3 -6 16 18.1 8.7
5 5 -16 -6.9 29.6
4 5 -16 10.1 27.3
4 5 -16 7.7 25.7
-4 -5 16 0.7 8.8
-4 -5 16 -12.9 11.9
3 5 -16 6.1 25
-3 -5 16 2.5 10.2
-3 -5 16 12.9 7.7
2 5 -16 -28.6 21.1
2 5 -16 13.2 22
-2 -5 16 5.8 10.2
-2 -5 16 7 7.7
1 5 -16 -31.9 19.8
-1 -5 16 -21.8 10.4
-1 -5 16 -4.2 7.4
0 5 -16 -25.6 18.8
0 -5 16 9.5 10.2
0 -5 16 -1.2 7.5
-1 5 -16 -9.8 20.4
1 -5 16 6.4 10.1
1 -5 16 0.3 8.1
-2 5 -16 14.9 12.1
-2 5 -16 -16.3 18.7
2 -5 16 19.7 10
2 -5 16 9.6 8.5
-3 5 -16 -1.7 16.2
-3 5 -16 17 11
3 -5 16 11.4 8.3
3 -5 16 19.5 10.7
-4 5 -16 43.8 17.8
-4 5 -16 7.5 10.5
4 -5 16 -7.5 12.1
5 4 -16 -46.3 25.4
5 4 -16 25 28.1
-5 -4 16 -16.1 10.9
-5 -4 16 10.2 8.8
4 4 -16 -36.3 24.1
-4 -4 16 -6.7 7.8
-4 -4 16 -3.7 9.8
3 4 -16 5.4 20.8
3 4 -16 -5 20.3
-3 -4 16 1 7.4
-3 -4 16 -1.6 10.1
2 4 -16 -10.9 20.8
-2 -4 16 36.8 11.2
-2 -4 16 13.5 7.4
1 4 -16 -23 20
-1 -4 16 13.3 7.2
-1 -4 16 4.7 10
0 4 -16 -24.2 13.4
0 -4 16 -5.2 7.3
0 -4 16 4.3 10.5
-1 4 -16 -31.9 17.4
1 -4 16 9.9 9.5
1 -4 16 9.3 7.4
-2 4 -16 -18.7 16.6
-2 4 -16 3.3 11.2
2 -4 16 11.6 8.2
2 -4 16 12.2 10.4
-3 4 -16 26.1 16.4
-3 4 -16 0.2 10.1
3 -4 16 26.3 8.9
3 -4 16 -10.1 10.6
-4 4 -16 19.8 17.5
-4 4 -16 -9.4 10.2
4 -4 16 19.9 11.6
6 3 -16 -39.4 25
6 3 -16 -51.99 29
-6 -3 16 -10.9 8.5
5 3 -16 0.5 24.9
5 3 -16 -5.1 22.8
-5 -3 16 -0.3 7.8
-5 -3 16 5.8 10.6
4 3 -16 15.9 21.4
4 3 -16 -26.4 22.6
-4 -3 16 15.8 10.3
-4 -3 16 0.6 7.3
3 3 -16 7.6 19.6
3 3 -16 49.6 20.2
-3 -3 16 41.8 10.5
-3 -3 16 22.4 7
2 3 -16 -22.4 18.9
2 3 -16 -4.1 19.1
-2 -3 16 7.7 7.2
-2 -3 16 3.8 9.7
1 3 -16 -16.2 17.9
1 3 -16 -2.7 15.6
-1 -3 16 39.5 8.2
-1 -3 16 36.8 10.4
0 3 -16 2.8 13.4
0 3 -16 -0.7 17.9
0 -3 16 -7.8 9
0 -3 16 10.9 7
-1 3 -16 -15.8 17.4
1 -3 16 -16.5 8.9
1 -3 16 -1.2 6.9
-2 3 -16 5.1 10.8
-2 3 -16 8.4 15.7
2 -3 16 16.4 7.7
2 -3 16 15.3 10.4
-3 3 -16 -19 9.6
-3 3 -16 31.9 16
3 -3 16 5.9 7.8
3 -3 16 3 10.7
-4 3 -16 22.9 16.7
4 -3 16 -0.6 11.2
6 2 -16 -12 27
6 2 -16 -46 23.6
-6 -2 16 2.1 8.6
5 2 -16 7.5 25
5 2 -16 -10.2 22.1
-5 -2 16 17.3 11
-5 -2 16 8.2 7.8
4 2 -16 -0.8 19.8
4 2 -16 8.4 20.4
-4 -2 16 5.5 6.9
-4 -2 16 5.5 10
3 2 -16 66.89 20.5
3 2 -16 42.4 20.5
-3 -2 16 65.99 10.9
-3 -2 16 46.4 8
2 2 -16 -6.3 17.7
2 2 -16 11.5 17.5
-2 -2 16 19 7.8
-2 -2 16 34.5 10.3
1 2 -16 -25.1 17.7
1 2 -16 -20.7 15.4
-1 -2 16 8 6.9
-1 -2 16 -0.2 10.1
0 2 -16 5.2 17.3
0 2 -16 6.7 13.5
0 -2 16 -5.3 8.9
0 -2 16 -6.8 6.7
-1 2 -16 3.5 11.1
-1 2 -16 -15.1 16.7
1 -2 16 0.5 9.9
1 -2 16 -15 7.4
-2 2 -16 35.4 16.9
2 -2 16 19.4 7.6
2 -2 16 33.8 10.8
-3 2 -16 4.6 15.1
-3 2 -16 -15 9.3
3 -2 16 0.6 6.8
3 -2 16 -2.2 10.1
-4 2 -16 39 17.2
4 -2 16 -12.4 11.2
6 1 -16 -22.5 21.5
6 1 -16 -41.9 26
-6 -1 16 11 11.7
-6 -1 16 13.4 9.2
5 1 -16 -7.8 23.4
5 1 -16 29.7 20.3
-5 -1 16 22.2 7.8
-5 -1 16 18.5 11
4 1 -16 -2.8 19.6
4 1 -16 30.7 18.4
-4 -1 16 36.3 11
-4 -1 16 27.1 7.7
3 1 -16 -10.7 16.5
3 1 -16 -24.5 17
-3 -1 16 4.9 6.8
-3 -1 16 -7.9 9.6
2 1 -16 -28.9 18.6
2 1 -16 -8.8 16.9
-2 -1 16 9.6 9.1
-2 -1 16 11.4 6.9
1 1 -16 -10 15.9
1 1 -16 22.7 17.8
-1 -1 16 6 9.2
-1 -1 16 20.3 7.5
0 1 -16 -12.7 15.9
0 1 -16 4.1 13.8
0 -1 16 15.5 7.7
0 -1 16 0.6 9.4
-1 1 -16 -0.2 16.6
-1 1 -16 30.8 12.9
1 -1 16 7.3 9.6
1 -1 16 8.3 7.1
-2 1 -16 32.3 16.2
-2 1 -16 6 13.2
2 -1 16 8.1 6.5
2 -1 16 -5.3 9.8
-3 1 -16 29.6 11.7
-3 1 -16 44.7 16.1
-4 1 -16 69.59 18.5
4 -1 16 7 11.8
7 0 -16 -32.6 27.6
7 0 -16 -3.1 24.7
6 0 -16 25.9 21.9
-6 0 16 11 11.3
-6 0 16 -12.5 8.6
5 0 -16 34.9 23.4
5 0 -16 21.9 20.6
-5 0 16 38.7 11.1
4 0 -16 -24.8 19.2
4 0 -16 -27.8 17.1
-4 0 16 -10 9.5
-4 0 16 10.4 7.7
3 0 -16 -15.7 17.2
-3 0 16 -11 9
-3 0 16 -0.5 7.5
2 0 -16 -20.5 15.3
2 0 -16 -19.3 15.8
-2 0 16 -11.6 9.3
-2 0 16 -7.6 6.6
1 0 -16 -0.4 16.8
1 0 -16 9.6 15.5
-1 0 16 23.6 8.8
-1 0 16 18.1 7.8
0 0 -16 -5.8 14.9
0 0 -16 -2.4 13.4
0 0 16 -14.6 7
0 0 16 -13.3 9
-1 0 -16 29.1 12.7
-1 0 -16 -3.1 14.7
1 0 16 -5.3 9.1
1 0 16 8.6 6.9
-2 0 -16 13.2 13.1
-2 0 -16 34.4 15.8
2 0 16 -4.6 10
-3 0 -16 13.3 16.1
-3 0 -16 44.8 14.2
3 0 16 4 10.7
7 -1 -16 -25.5 23.1
-7 1 16 3.8 10.3
6 -1 -16 14.5 24.5
6 -1 -16 49.8 22.1
-6 1 16 48.2 13.3
-6 1 16 32.4 9.5
5 -1 -16 -37 20.3
5 -1 -16 -35.4 17.8
-5 1 16 0.8 8.1
-5 1 16 -9 11.6
4 -1 -16 -20.2 18
4 -1 -16 -26.1 19.1
-4 1 16 5.1 8.2
-4 1 16 12.9 10
3 -1 -16 -27.9 15.8
-3 1 16 -7.3 8
-3 1 16 4 9.1
2 -1 -16 -21.6 17.6
2 -1 -16 -10.1 15.1
-2 1 16 -7.5 7.6
-2 1 16 3 9.3
1 -1 -16 4.3 16.1
1 -1 -16 -3.8 14.7
-1 1 16 -7.5 9.7
-1 1 16 6.4 7.7
0 -1 -16 12.3 14.5
0 -1 -16 4.3 12.8
0 1 16 -8.5 9.5
0 1 16 -2.1 7.4
-1 -1 -16 69.39 16
-1 -1 -16 34.7 13.6
1 1 16 44.7 6.6
1 1 16 23.6 10.1
-2 -1 -16 41.2 15.6
-2 -1 -16 35 12.8
-3 -1 -16 14.7 13.6
-3 -1 -16 6.4 15.2
3 1 16 15.4 11.6
6 -2 -16 -13.1 23.6
6 -2 -16 12.7 20.6
-6 2 16 32.9 10.1
-6 2 16 36.7 12.9
5 -2 -16 -33.5 20.1
5 -2 -16 -31.9 20.5
-5 2 16 -11.1 10.9
-5 2 16 11.5 8.6
4 -2 -16 -23.8 16.8
4 -2 -16 -28.7 18.7
-4 2 16 29.4 10.8
-4 2 16 13.1 8.7
-3 2 16 5.8 10.5
-3 2 16 -3.2 8.4
2 -2 -16 10.5 15
2 -2 -16 -3.4 16.3
-2 2 16 1.8 8.3
-2 2 16 -6.7 9.6
1 -2 -16 -4 13.7
1 -2 -16 -8.9 13.8
-1 2 16 -2 7.7
-1 2 16 -4.4 9.2
0 -2 -16 23.6 14.8
0 -2 -16 7.7 14.4
0 2 16 -8.7 7.2
0 2 16 2.9 10.1
-1 -2 -16 51.69 15.2
-1 -2 -16 44.4 15.4
-2 -2 -16 55.49 14.3
-2 -2 -16 68.99 17.1
6 -3 -16 -15.1 20.1
6 -3 -16 -1.8 23.2
-6 3 16 36.6 12.7
-6 3 16 35.9 10.8
5 -3 -16 -35.2 18.1
-5 3 16 0.6 11.2
-5 3 16 14.5 8.9
-4 3 16 1.8 8.7
-4 3 16 -0.8 10.5
3 -3 -16 -13.4 14.7
3 -3 -16 -9 17.7
-3 3 16 8.3 8.7
-3 3 16 -7 9.9
2 -3 -16 -16.9 15.6
2 -3 -16 5.2 15.4
-2 3 16 5.8 10.2
-2 3 16 -2.5 8.9
1 -3 -16 -3.1 14.8
1 -3 -16 11.6 13.6
-1 3 16 1 9.9
-1 3 16 12.9 8.5
0 -3 -16 27.7 14.3
0 -3 -16 61.89 15.1
0 3 16 40.8 11.5
-1 -3 -16 19.2 15.1
1 3 16 1.5 11.6
-2 -3 -16 39.7 16
-2 -3 -16 38.2 14.3
2 3 16 -14.8 12.8
6 -4 -16 -47.7 23.2
-6 4 16 7.8 10.6
-6 4 16 -2.3 13
5 -4 -16 14.2 20.7
5 -4 -16 -23.2 20.3
-5 4 16 7.6 10
-5 4 16 27.4 12.5
4 -4 -16 12 13.6
4 -4 -16 -12.5 15.5
4 -4 -16 -27 18.3
-4 4 16 -6.7 9.3
-4 4 16 -8.7 11.3
3 -4 -16 11.5 14.1
3 -4 -16 -1.7 14.5
3 -4 -16 15.4 17.3
-3 4 16 14.2 11.1
-3 4 16 6.8 9.2
2 -4 -16 18.6 14
2 -4 -16 14.7 18.4
2 -4 -16 7.5 15.4
-2 4 16 -8.5 9
-2 4 16 -3.9 10.6
1 -4 -16 26.9 16.1
1 -4 -16 35.5 15.3
-1 4 16 2.3 12
0 -4 -16 59.59 15.1
0 -4 -16 52.59 16.9
-1 -4 -16 43.7 16.4
1 4 16 4.1 12.5
5 -5 -16 4.9 14.2
5 -5 -16 7.9 22.3
-5 5 16 3 10.7
-5 5 16 -7.3 12.9
4 -5 -16 -7.3 16.3
4 -5 -16 44.1 27.3
4 -5 -16 9.8 19.1
-4 5 16 16.4 12.1
-4 5 16 23.1 11
3 -5 -16 -11.5 14.3
3 -5 -16 17.5 15.2
3 -5 -16 37.5 18.9
-3 5 16 9.3 12.2
-3 5 16 -1.7 10.7
2 -5 -16 29 15.6
2 -5 -16 -8.4 17.4
2 -5 -16 28 14.5
-2 5 16 23.6 12
-2 5 16 -11.7 10.3
1 -5 -16 -18.2 16.4
1 -5 -16 14.3 15.9
-1 5 16 -0.5 20
1 7 -17 -43.9 25.7
-1 -7 17 -21.9 9
-1 -7 17 7.8 13.4
0 7 -17 -5.3 13.4
0 7 -17 -35 25.6
0 -7 17 2.9 13.3
0 -7 17 3.9 9.5
-1 7 -17 8.6 15.4
1 -7 17 11.3 13.4
1 -7 17 15.1 9.4
3 6 -17 -55.99 27.7
3 6 -17 -29.7 26.2
-3 -6 17 -0.4 12.9
-3 -6 17 3.8 9.1
2 6 -17 -37.7 23.5
2 6 -17 -13.5 25.8
-2 -6 17 24.9 9.1
-2 -6 17 30.8 13
1 6 -17 -39.4 25.1
-1 -6 17 -12.9 8.4
-1 -6 17 -3.8 12.1
0 -6 17 16.7 8.7
0 -6 17 39.5 13
-1 6 -17 -3.5 13.2
1 -6 17 -0.1 9
1 -6 17 10.9 12.4
-2 6 -17 -39 20
-2 6 -17 -16.4 12.7
2 -6 17 0.6 9
2 -6 17 -13 11.3
4 5 -17 3.9 27.6
4 5 -17 -33 29.2
-4 -5 17 -13 12.3
-4 -5 17 7.4 9.4
3 5 -17 -28.1 25.3
-3 -5 17 26 9.3
-3 -5 17 6.1 11.6
2 5 -17 -17.7 21.1
-2 -5 17 -0.3 8.1
-2 -5 17 18 11.7
1 5 -17 -34.8 22
-1 -5 17 -1.5 8.3
-1 -5 17 -1.6 11
0 5 -17 -13.9 22.5
0 -5 17 1.9 8.6
0 -5 17 -0.3 11.2
-1 5 -17 14.9 12.9
1 -5 17 4.7 8.5
1 -5 17 -2.6 11
-2 5 -17 -8.3 19.8
-2 5 -17 6.4 13.6
2 -5 17 17.8 8.9
2 -5 17 7.7 11.1
-3 5 -17 1.9 18.5
-3 5 -17 22.4 12
3 -5 17 4.3 9.3
3 -5 17 19.4 12
4 4 -17 -42 25.3
4 4 -17 -18.4 25.4
-4 -4 17 25.4 12.3
-4 -4 17 8.3 8.8
3 4 -17 -9.7 23
3 4 -17 25.5 23.4
-3 -4 17 9.2 8.3
-3 -4 17 -7.3 11.5
2 4 -17 -0.2 22.8
2 4 -17 -14.7 20.7
-2 -4 17 -8.8 11.5
-2 -4 17 6.7 7.6
1 4 -17 -28.1 21.2
1 4 -17 -28.8 19
-1 -4 17 -5.6 10.9
-1 -4 17 2.7 8.1
0 4 -17 -19.9 20.8
0 -4 17 19.2 8.6
0 -4 17 13.2 11.1
1 -4 17 12.5 11.6
1 -4 17 4.9 7.8
-2 4 -17 1.4 12.8
-2 4 -17 -33.4 17.5
2 -4 17 -5.8 8.4
2 -4 17 14.8 11.5
-3 4 -17 66.09 19.8
3 -4 17 22.4 9.4
3 -4 17 7.4 12.1
5 3 -17 -22.6 27.5
5 3 -17 9.6 27.8
-5 -3 17 7.2 11.5
4 3 -17 -12.6 25
4 3 -17 -48.2 24
-4 -3 17 9.5 11.3
-4 -3 17 -4.8 8.1
3 3 -17 -36.3 20.9
3 3 -17 -13.3 20.6
-3 -3 17 27.8 8.3
-3 -3 17 1 11.3
2 3 -17 25.4 22.8
2 3 -17 -16.9 19.2
-2 -3 17 50.29 11.8
1 3 -17 -33.4 18.7
1 3 -17 -41.2 21
-1 -3 17 4.3 11
-1 -3 17 3.7 8
0 3 -17 -24.7 18.9
0 3 -17 -16.9 15.1
0 -3 17 10.5 7.6
0 -3 17 -16 10.3
-1 3 -17 3.5 11.4
-1 3 -17 -19.5 18.5
1 -3 17 9.6 10.4
1 -3 17 6.7 7.9
-2 3 -17 20.2 18.5
-2 3 -17 11.7 12.9
2 -3 17 0.7 8.3
2 -3 17 -3.3 11.1
-3 3 -17 27.2 17.5
-3 3 -17 5.8 11.3
3 -3 17 16.6 11.9
3 -3 17 7.3 8.3
5 2 -17 -30.5 26
5 2 -17 -12.3 23.1
-5 -2 17 -3.7 8.6
-5 -2 17 14 12.1
4 2 -17 -15.1 23.5
4 2 -17 -29.1 21.2
-4 -2 17 -6.9 7.7
-4 -2 17 -6.8 11.4
3 2 -17 -14.2 19.9
-3 -2 17 17.7 11
-3 -2 17 11.6 7.6
2 2 -17 18.6 19.7
2 2 -17 -26.6 18.5
-2 -2 17 31 12.1
-2 -2 17 18.8 8.1
1 2 -17 -19.8 17.6
1 2 -17 -28.9 18.7
-1 -2 17 17.7 8
-1 -2 17 4.1 10.4
0 2 -17 -20.8 15.5
0 -2 17 22.1 11
0 -2 17 9.8 8.2
-1 2 -17 -5 13
-1 2 -17 5.3 18.2
1 -2 17 10.1 8.1
1 -2 17 0.5 10.6
-2 2 -17 20.6 13.6
-2 2 -17 42.3 18.1
-2 2 -17 27.5 12.2
2 -2 17 -0.1 11
-3 2 -17 32.3 17.7
3 -2 17 0 11.9
6 1 -17 -13.8 28.8
6 1 -17 -14.5 24.3
-6 -1 17 -13.2 12.7
-6 -1 17 -4.3 9.2
5 1 -17 46.2 22.7
5 1 -17 22.2 25.1
-5 -1 17 50.69 10
-5 -1 17 51.09 13
4 1 -17 -27.1 22.2
4 1 -17 -32 20.1
-4 -1 17 -12.7 7.5
-4 -1 17 -18 11.2
3 1 -17 -39.7 19.4
3 1 -17 -36.5 18.1
-3 -1 17 3.4 11.2
-3 -1 17 6.5 7.9
2 1 -17 -22.1 18.9
-2 -1 17 6.8 7.3
-2 -1 17 13.1 10.9
1 1 -17 -8.7 18.9
1 1 -17 -7.4 15.8
-1 -1 17 -0.8 8.1
-1 -1 17 8.1 9.8
0 1 -17 -10.6 17.7
0 1 -17 4.1 15.2
0 -1 17 -0.1 7.6
0 -1 17 3.3 10
-1 1 -17 13.9 13.6
-1 1 -17 -8.5 16.6
1 -1 17 9.4 8.2
1 -1 17 6.3 9.7
-2 1 -17 34.2 17.4
-2 1 -17 38.7 13.5
2 -1 17 2.5 8.9
2 -1 17 10.3 11.8
-3 1 -17 29.2 17.8
3 -1 17 11.5 11.8
6 0 -17 -17.3 26.5
6 0 -17 -43.8 22.2
-6 0 17 9.9 9.2
-6 0 17 3.4 13
5 0 -17 -12.2 21.4
5 0 -17 -19.5 23.9
-5 0 17 13.6 8.9
-5 0 17 3.6 12.1
4 0 -17 -27.3 19.3
4 0 -17 -18.2 21.8
-4 0 17 12.4 8.9
-4 0 17 4.4 11.7
3 0 -17 -29.4 19.7
3 0 -17 -30.3 18.2
-3 0 17 4 10.1
-3 0 17 -4.7 8.3
2 0 -17 -27.8 16.6
-2 0 17 1.4 9.9
-2 0 17 -11.5 7.3
1 0 -17 -15.5 16.6
1 0 -17 -11.9 16.8
-1 0 17 1.7 7.8
-1 0 17 -17.4 9.6
0 0 -17 -7.4 14.8
0 0 -17 -11.7 16.6
0 0 17 1.6 9.6
0 0 17 5.5 8.5
-1 0 -17 42.6 14.3
-1 0 -17 72.39 18.8
1 0 17 30.4 8.1
1 0 17 67.89 12.3
-2 0 -17 34.6 13.6
-2 0 -17 52.19 17.6
2 0 17 6.3 12.1
6 -1 -17 -20.5 21.5
-6 1 17 7.6 9.8
-6 1 17 2.9 12.5
-5 1 17 18.9 9.5
-5 1 17 24.1 12.4
4 -1 -17 -22.5 19.7
4 -1 -17 -22.6 21
-4 1 17 20.3 11.4
-4 1 17 13.7 8.5
3 -1 -17 -31.3 19
-3 1 17 19.8 10.9
-3 1 17 15.1 9.1
2 -1 -17 -2.4 17.8
2 -1 -17 -12.9 16.8
-2 1 17 -6.5 8.3
-2 1 17 15 10.5
1 -1 -17 -12.2 16.2
1 -1 -17 2.3 16.6
-1 1 17 -1.9 9.8
-1 1 17 17.5 8.5
0 -1 -17 16.2 14.9
0 -1 -17 41.7 16.6
0 1 17 60.59 9.9
-1 -1 -17 7.5 14.1
-1 -1 -17 4.6 15.8
1 1 17 11 11.2
-2 -1 -17 58.39 15.8
-2 -1 -17 62.79 18.1
2 1 17 53.19 12.6
6 -2 -17 -46.2 25.9
-6 2 17 19.3 13.7
-6 2 17 26.2 10.8
5 -2 -17 -29.6 21.3
-5 2 17 -6.6 9.6
-5 2 17 0 12.5
4 -2 -17 -37.8 19.8
4 -2 -17 -11.3 20.5
-4 2 17 -9.2 9.1
-4 2 17 6 11.9
3 -2 -17 -11 17.5
-3 2 17 14.3 9.6
-3 2 17 4.2 11.1
2 -2 -17 -11.6 18.1
2 -2 -17 -16.3 16.4
-2 2 17 1.2 10.6
-2 2 17 24.3 9.7
1 -2 -17 24.4 15.8
1 -2 -17 14.7 15.9
-1 2 17 7.2 10.9
-1 2 17 2.8 9
0 -2 -17 11.7 15.2
0 -2 -17 2.2 14.8
0 2 17 29.1 11.2
-1 -2 -17 59.89 16.6
1 2 17 32.8 12.8
-5 3 17 2.7 10
-5 3 17 -8.7 12.4
4 -3 -17 -16.6 18.1
-4 3 17 -4.8 9.3
-4 3 17 7.9 11.5
3 -3 -17 -18.2 17.9
3 -3 -17 -29 18.8
-3 3 17 11.6 11
-3 3 17 -10.3 9.7
2 -3 -17 5.4 15.8
2 -3 -17 -31.2 16.5
-2 3 17 10.7 10.2
-2 3 17 -10.4 11.4
1 -3 -17 36.4 15.9
1 -3 -17 13 15.7
-1 3 17 20.8 11.9
0 -3 -17 27.4 15.8
0 3 17 35.9 13
4 -4 -17 -2.1 17.6
4 -4 -17 -29.5 20.5
-4 4 17 11 13.1
-4 4 17 -4.6 10.3
3 -4 -17 48.9 17.9
3 -4 -17 -24.1 19.1
-3 4 17 7.7 12.6
-3 4 17 2.6 10.8
2 -4 -17 9 15.7
2 -4 -17 15.5 18.1
-2 4 17 3.1 12.2
-2 4 17 -6.9 9.8
1 -4 -17 4 17.7
1 -4 -17 9.6 15.8
-1 4 17 -6.2 12.5
2 5 -18 -27.1 27.4
-2 -5 18 8.3 12.9
-2 -5 18 1.4 8.9
-1 -5 18 17.7 12.7
-1 -5 18 2.2 9.9
0 5 -18 -6.9 25.5
0 -5 18 44.6 10
0 -5 18 50.29 13.6
-1 5 -18 1.2 15
-1 5 -18 -43.6 22.5
1 -5 18 19.6 12.5
1 -5 18 5 9.1
3 4 -18 -41.8 25.4
-3 -4 18 5.8 8.9
-3 -4 18 13 12.5
2 4 -18 21.2 26.1
2 4 -18 -13.7 22.2
-2 -4 18 53.29 13.7
1 4 -18 -25.8 23.8
-1 -4 18 8 8.5
-1 -4 18 21.9 12.9
0 4 -18 -17.8 24.3
0 -4 18 13.5 12.7
0 -4 18 17.6 9.2
-1 4 -18 -8.7 21.2
1 -4 18 3.5 12.4
1 -4 18 -8 8.8
-2 4 -18 -10.7 14.4
-2 4 -18 3 20.8
2 -4 18 5.2 12.8
2 -4 18 -9.6 9.3
4 3 -18 -41.8 26.2
4 3 -18 9.6 27.4
-4 -3 18 -7.9 13.1
-4 -3 18 -1.1 9
3 3 -18 -28.1 25.4
3 3 -18 -28.9 23
-3 -3 18 -9.1 9
-3 -3 18 15.2 12.7
2 3 -18 -9.1 21.7
2 3 -18 -42.7 23.4
-2 -3 18 -3.9 8.5
-2 -3 18 8.4 12.2
-1 -3 18 -6.2 8.7
-1 -3 18 13.6 11.5
0 3 -18 -22 16
0 -3 18 16.3 12.1
-1 3 -18 -21.3 22.4
1 -3 18 13.3 12.2
1 -3 18 11.4 8.6
-2 3 -18 20 14.5
-2 3 -18 -14.5 20.1
2 -3 18 0.7 12.2
2 -3 18 -7 8.9
4 2 -18 21 26.1
4 2 -18 -41.5 23.9
-4 -2 18 36.3 13.8
-4 -2 18 12.6 8.8
-3 -2 18 16.9 12.9
-3 -2 18 10 8.7
2 2 -18 -23.6 19.7
-2 -2 18 6.7 11.9
-2 -2 18 -4.8 8.5
1 2 -18 -20.5 19.9
-1 -2 18 -2.9 11.6
-1 -2 18 -5.6 8.5
0 2 -18 -24.6 15.6
0 2 -18 -15.7 21.1
0 -2 18 -17.8 11.3
0 -2 18 -16.1 8.5
-1 2 -18 -2.6 13.4
-1 2 -18 -26.5 19.3
1 -2 18 -16.6 8.9
1 -2 18 1.9 12.1
-2 2 -18 39.1 20.4
-2 2 -18 8 15.4
2 -2 18 13.7 12.1
2 -2 18 26.8 8.1
5 1 -18 -23.1 27.4
5 1 -18 -25.7 24.9
-5 -1 18 14.1 10.1
-5 -1 18 -27.3 13.5
4 1 -18 -40.2 23.7
-4 -1 18 8.8 8.8
-4 -1 18 11.9 13.3
3 1 -18 -43.5 21.4
-3 -1 18 21.1 8.9
-3 -1 18 -12.9 12.1
2 1 -18 -11.1 19.5
-2 -1 18 0.7 11.8
-2 -1 18 -0.8 8.4
1 1 -18 -29.7 20.1
1 1 -18 7.6 17.4
-1 -1 18 17.5 9
-1 -1 18 7.9 11.4
0 1 -18 -11.4 20
0 1 -18 1 15.5
0 -1 18 -11.7 11.5
0 -1 18 3.8 8.8
-1 1 -18 9.8 20.3
-1 1 -18 21.5 14.7
1 -1 18 7 9.5
1 -1 18 -0.2 12
-2 1 -18 25.5 15.6
-2 1 -18 72.59 20.1
5 0 -18 -29.2 22.9
5 0 -18 -33.5 25.6
-5 0 18 -2.6 13.2
-5 0 18 -13.7 9.4
-4 0 18 -17.4 12.3
-4 0 18 -7.5 8.9
-3 0 18 -8.5 8.4
-3 0 18 -6.3 11.1
-2 0 18 -1.7 10.8
-2 0 18 7.6 9
1 0 -18 -16.6 19.2
1 0 -18 3 17.3
-1 0 18 7.1 10.8
-1 0 18 3.5 9
0 0 -18 29.8 15.7
0 0 -18 2.3 18.8
0 0 18 16.7 11.5
0 0 18 5 9.8
-1 0 -18 8.5 18.6
-1 0 -18 10.9 15.5
1 0 18 5.6 12.1
5 -1 -18 -39.4 22.3
-5 1 18 6.9 13.1
-5 1 18 -0.7 10.1
4 -1 -18 -41.7 22.9
-4 1 18 7.7 12.5
-4 1 18 -10.8 9.4
3 -1 -18 -33.4 19.9
-3 1 18 32.9 11.9
-3 1 18 -16.1 9.4
2 -1 -18 -35.1 17.9
-2 1 18 4.5 11.1
-2 1 18 -1 9
1 -1 -18 -8.8 16.3
1 -1 -18 -28.3 17.2
-1 1 18 -6.6 9.2
-1 1 18 8.9 11.1
0 -1 -18 56.89 19
0 -1 -18 27.8 16.3
0 1 18 16.4 11.3
0 1 18 -0.9 8.9
-1 -1 -18 33.2 18.7
1 1 18 -13.6 11.6
-4 2 18 -0.1 10.6
-4 2 18 -26.4 12.8
3 -2 -18 6 19
3 -2 -18 -21.6 22
-3 2 18 38.6 10.4
-3 2 18 32.5 13.1
2 -2 -18 -24.1 19.2
2 -2 -18 -1.3 17.7
-2 2 18 9.2 12.1
-2 2 18 12.5 9.9
1 -2 -18 11.4 17.5
1 -2 -18 15.4 17.2
-1 2 18 -6.9 12
-1 2 18 10.4 9.4
0 -2 -18 39.6 18.4
0 -2 -18 19.8 16.6
0 2 18 13.8 12.5
3 -3 -18 2.8 18.4
-3 3 18 21.9 11.1
-3 3 18 -10.6 12.5
2 -3 -18 16.5 19
2 -3 -18 16.2 18
-2 3 18 -2.4 13.1
2 3 -19 -46.3 22.4
-2 -3 19 -15.6 13.9
-2 -3 19 16.2 9.8
1 3 -19 -50.79 25.7
-1 -3 19 2.2 13.3
-1 -3 19 13 10.2
0 -3 19 22.7 13.4
3 2 -19 -44.5 25.6
3 2 -19 -40.7 23.9
-3 -2 19 34.7 10.2
2 2 -19 -33.5 22.4
-2 -2 19 12.1 9.6
-2 -2 19 -9.3 13.2
1 2 -19 -27.6 19.9
1 2 -19 -12 23.6
-1 -2 19 -2 13.7
-1 -2 19 -3.9 9.7
0 2 -19 14 16.9
0 -2 19 -2.7 9.9
0 -2 19 6.5 13.3
-3 -1 19 13.4 14
-3 -1 19 11.7 10.2
2 1 -19 -20.2 23.1
2 1 -19 6.5 21.1
-2 -1 19 9.3 9.6
-2 -1 19 -7.5 13.5
1 1 -19 -32.3 19.8
-1 -1 19 -2 12.5
-1 -1 19 -3.9 9.7
0 1 -19 0.7 17.2
0 1 -19 -15.5 21.3
0 -1 19 -20.7 9.9
0 -1 19 -7.2 12.9
3 0 -19 -21.6 23.2
-3 0 19 11.1 13.9
-3 0 19 -9.6 9.8
2 0 -19 -16.1 22.7
-2 0 19 -2.6 12.5
-2 0 19 10.4 10
1 0 -19 -12.7 18.4
1 0 -19 -21.9 20.9
-1 0 19 17.1 11
-1 0 19 -0.8 13.3

_iucr_refine_instructions_details 
;
TITL 1_a.res in P-1
    1.res
    created by SHELXL-2018/3 at 18:37:00 on 19-Oct-2021
REM Old TITL
REM SHELXT solution in P-1: R1 0.173, Rweak 0.027, Alpha 0.061
REM <I/s> 0.000 for 0 systematic absences, Orientation as input
REM Formula found by SHELXT: C17 B N2 O2
CELL 0.71073 7.9377 9.5122 14.8507 97.129 98.579 105.788
ZERR 2 0.001 0.0012 0.0019 0.003 0.003 0.003
LATT 1
SFAC C H B N O
UNIT 56 38 2 4 4

L.S. 10
PLAN  5
SIZE 0.5 0.5 0.5
TEMP -73.15
CONF
BOND
list 4
MORE -1
BOND $H
fmap 2
ACTA
REM <olex2.extras>
REM <HklSrc "%.\\1.hkl">
REM </olex2.extras>

WGHT    0.044700    0.403000
FVAR       0.67065
B1    3    0.374211    0.292199    0.300420    11.00000    0.02159    0.02393 =
         0.02171    0.00365    0.00051    0.00636
C1    1    1.316893    0.833279    0.124568    11.00000    0.03238    0.05678 =
         0.04510    0.01387    0.00152   -0.00921
AFIX 137
H1A   2    1.329347    0.939184    0.140554    11.00000   -1.50000
H1B   2    1.313552    0.807913    0.058187    11.00000   -1.50000
H1C   2    1.418585    0.811086    0.159514    11.00000   -1.50000
AFIX   0
C2    1    1.146180    0.743388    0.148370    11.00000    0.02478    0.03759 =
         0.02937    0.00859   -0.00019   -0.00220
C3    1    1.077433    0.592403    0.115692    11.00000    0.02650    0.03848 =
         0.03360    0.00653    0.00678    0.00550
AFIX  43
H3    2    1.137799    0.545464    0.076520    11.00000   -1.20000
AFIX   0
C4    1    0.923468    0.508171    0.138499    11.00000    0.02697    0.02362 =
         0.03305    0.00316    0.00351    0.00407
AFIX  43
H4    2    0.877694    0.405343    0.113552    11.00000   -1.20000
AFIX   0
C5    1    0.834651    0.573515    0.198128    11.00000    0.02059    0.02475 =
         0.02718    0.00392    0.00064    0.00279
C6    1    0.902851    0.725728    0.230313    11.00000    0.03697    0.02687 =
         0.03694    0.00261    0.00812    0.00474
AFIX  43
H6    2    0.843908    0.772902    0.270223    11.00000   -1.20000
AFIX   0
C7    1    1.054770    0.809285    0.205185    11.00000    0.03893    0.02493 =
         0.04047    0.00425    0.00342   -0.00533
AFIX  43
H7    2    1.097239    0.913195    0.227071    11.00000   -1.20000
AFIX   0
C8    1    0.681804    0.481342    0.230310    11.00000    0.02078    0.02175 =
         0.03164    0.00572    0.00377    0.00747
C9    1    0.534784    0.379726    0.167787    11.00000    0.02355    0.02237 =
         0.02666    0.00766    0.00672    0.00847
C10   1    0.479779    0.362942    0.071353    11.00000    0.02829    0.02791 =
         0.02755    0.00974    0.00660    0.01007
AFIX  43
H10   2    0.551822    0.402787    0.029547    11.00000   -1.20000
AFIX   0
C11   1    0.302455    0.278273    0.048105    11.00000    0.02755    0.03109 =
         0.02102    0.00209   -0.00124    0.00734
AFIX  43
H11   2    0.230993    0.249129   -0.012225    11.00000   -1.20000
AFIX   0
C12   1    0.248023    0.243510    0.130769    11.00000    0.02457    0.01926 =
         0.02457    0.00260    0.00244    0.00618
C13   1    0.683742    0.492050    0.325426    11.00000    0.02171    0.02058 =
         0.03044    0.00369    0.00114    0.00599
C14   1    0.823577    0.557112    0.403316    11.00000    0.02245    0.03148 =
         0.03470   -0.00019   -0.00083    0.00516
AFIX  43
H14   2    0.933497    0.628971    0.403548    11.00000   -1.20000
AFIX   0
C15   1    0.772308    0.498214    0.477942    11.00000    0.02995    0.03789 =
         0.02633   -0.00346   -0.00543    0.01451
AFIX  43
H15   2    0.839578    0.522706    0.539231    11.00000   -1.20000
AFIX   0
C16   1    0.601469    0.394487    0.447543    11.00000    0.02495    0.02971 =
         0.02090   -0.00074   -0.00227    0.01469
C17   1    0.496579    0.275836    0.485741    11.00000    0.02921    0.03141 =
         0.02425    0.00777    0.00403    0.01800
C18   1    0.376563    0.153012    0.423384    11.00000    0.03133    0.03118 =
         0.02566    0.01131    0.00663    0.01606
C19   1    0.279772    0.032074    0.456340    11.00000    0.04505    0.03434 =
         0.03546    0.01347    0.00932    0.01088
AFIX  43
H19   2    0.198578   -0.050520    0.414502    11.00000   -1.20000
AFIX   0
C20   1    0.302404    0.032629    0.550784    11.00000    0.06722    0.04545 =
         0.04266    0.02613    0.02119    0.02001
AFIX  43
H20   2    0.234403   -0.049415    0.573358    11.00000   -1.20000
AFIX   0
C21   1    0.422424    0.150731    0.612727    11.00000    0.06592    0.05405 =
         0.02881    0.01602    0.01220    0.03147
AFIX  43
H21   2    0.437908    0.148951    0.677212    11.00000   -1.20000
AFIX   0
C22   1    0.519328    0.270912    0.580314    11.00000    0.04775    0.04190 =
         0.02598    0.00723    0.00386    0.02818
AFIX  43
H22   2    0.602672    0.351453    0.622809    11.00000   -1.20000
AFIX   0
C23   1    0.064385    0.246198    0.249576    11.00000    0.02064    0.01839 =
         0.02663    0.00410   -0.00062    0.00515
C24   1   -0.100574    0.213480    0.276554    11.00000    0.02837    0.02881 =
         0.02688    0.00643    0.00599    0.00811
AFIX  43
H24   2   -0.108720    0.250334    0.337700    11.00000   -1.20000
AFIX   0
C25   1   -0.252067    0.127953    0.215063    11.00000    0.02287    0.03147 =
         0.04043    0.00955    0.00684    0.00643
AFIX  43
H25   2   -0.363648    0.104592    0.234518    11.00000   -1.20000
AFIX   0
C26   1   -0.243150    0.075536    0.124833    11.00000    0.02166    0.03317 =
         0.03593    0.00134   -0.00354    0.00042
AFIX  43
H26   2   -0.348113    0.016618    0.082748    11.00000   -1.20000
AFIX   0
C27   1   -0.080878    0.109578    0.096706    11.00000    0.02904    0.02804 =
         0.02947    0.00207    0.00181    0.00865
AFIX  43
H27   2   -0.075679    0.075427    0.034588    11.00000   -1.20000
AFIX   0
C28   1    0.075876    0.193340    0.157911    11.00000    0.02275    0.02079 =
         0.02340    0.00367    0.00005    0.00566
N1    4    0.391639    0.296316    0.200642    11.00000    0.02062    0.02139 =
         0.02097    0.00369    0.00163    0.00504
N2    4    0.545877    0.399437    0.357763    11.00000    0.02160    0.02435 =
         0.02139    0.00282    0.00016    0.00732
O1    5    0.211222    0.332506    0.312109    11.00000    0.02252    0.02678 =
         0.02301    0.00177   -0.00005    0.00669
O2    5    0.357574    0.147677    0.329479    11.00000    0.03021    0.02441 =
         0.02270    0.00717    0.00201    0.00773
HKLF 4




REM  1_a.res in P-1
REM wR2 = 0.1362, GooF = S = 1.025, Restrained GooF = 1.025 for all data
REM R1 = 0.0659 for 2730 Fo > 4sig(Fo) and 0.1459 for all 4893 data
REM 299 parameters refined using 0 restraints

END  
     
WGHT      0.0447      0.4030 

REM Highest difference peak  0.278,  deepest hole -0.299,  1-sigma level  0.056
Q1    1   1.3751  0.9111  0.1938  11.00000  0.05    0.28
Q2    1   1.1605  0.6590  0.1556  11.00000  0.05    0.22
Q3    1   0.4509  0.3794  0.3144  11.00000  0.05    0.20
Q4    1   0.6790  0.4451  0.7351  11.00000  0.05    0.20
Q5    1   0.7620  0.5215  0.2152  11.00000  0.05    0.19

  REM The information below was added by Olex2.
  REM
  REM R1 = 0.0659 for 2730 Fo > 4sig(Fo) and 0.1459 for all 22543 data
  REM 299 parameters refined using n/a restraints
  REM Highest difference peak 0.28, deepest hole -0.30
  REM Mean Shift 0, Max Shift 0.000.

  REM +++ Tabular Listing of Refinement Information +++
  REM R1_all = 0.1459
  REM R1_gt = 0.0659
  REM wR_ref = 0.1362
  REM GOOF = 1.025
  REM Shift_max = 0.000
  REM Shift_mean = 0
  REM Reflections_all = 22543
  REM Reflections_gt = 2730
  REM Parameters = 299
  REM Hole = -0.30
  REM Peak = 0.28
  REM Flack = n/a

  
;
_olex2_submission_special_instructions 'No special instructions were received'
