data_20200115-1
_audit_creation_date               2020-01-17
_audit_creation_method
;
Olex2 1.3-ac4
(compiled 2019.10.09 svn.r3662 for Rigaku Oxford Diffraction, GUI svn.r5959)
;
_shelx_SHELXL_version_number       '2014/7'
_audit_contact_author_address      ?
_audit_contact_author_email        ?
_audit_contact_author_name         ''
_audit_contact_author_phone        ?
_publ_contact_author_id_orcid      ?
_publ_section_references
;
Dolomanov, O.V., Bourhis, L.J., Gildea, R.J, Howard, J.A.K. & Puschmann, H.
 (2009), J. Appl. Cryst. 42, 339-341.

Sheldrick, G.M. (2015). Acta Cryst. A71, 3-8.

Sheldrick, G.M. (2015). Acta Cryst. C71, 3-8.
;
_chemical_name_common              ?
_chemical_name_systematic          ?
_chemical_formula_moiety           'C56 H54'
_chemical_formula_sum              'C56 H54'
_chemical_formula_weight           726.99
_chemical_absolute_configuration   ?
_chemical_melting_point            ?
_chemical_oxdiff_formula           C56H54
_chemical_oxdiff_usercomment       '150 K '
loop_
  _atom_type_symbol
  _atom_type_description
  _atom_type_scat_dispersion_real
  _atom_type_scat_dispersion_imag
  _atom_type_scat_source
 'C' 'C' 0.0181 0.0091 'International Tables Vol C Tables 4.2.6.8 and 6.1.1.4'
 'H' 'H' 0.0000 0.0000 'International Tables Vol C Tables 4.2.6.8 and 6.1.1.4'

_shelx_space_group_comment
;
The symmetry employed for this shelxl refinement is uniquely defined
by the following loop, which should always be used as a source of
symmetry information in preference to the above space-group names.
They are only intended as comments.
;
_space_group_crystal_system        'orthorhombic'
_space_group_IT_number             29
_space_group_name_H-M_alt          'P c a 21'
_space_group_name_Hall             'P 2c -2ac'
loop_
  _space_group_symop_operation_xyz
 'x, y, z'
 '-x, -y, z+1/2'
 'x+1/2, -y, z'
 '-x+1/2, y, z+1/2'

_cell_length_a                     28.313(2)
_cell_length_b                     18.0423(9)
_cell_length_c                     8.0929(4)
_cell_angle_alpha                  90
_cell_angle_beta                   90
_cell_angle_gamma                  90
_cell_volume                       4134.2(4)
_cell_formula_units_Z              4
_cell_measurement_reflns_used      4214
_cell_measurement_temperature      150.00(10)
_cell_measurement_theta_max        73.7780
_cell_measurement_theta_min        2.4580
_shelx_estimated_absorpt_T_max     ?
_shelx_estimated_absorpt_T_min     ?
_exptl_absorpt_coefficient_mu      0.491
_exptl_absorpt_correction_T_max    1.000
_exptl_absorpt_correction_T_min    0.650
_exptl_absorpt_correction_type     gaussian
_exptl_absorpt_process_details
;
CrysAlisPro 1.171.40.68a (Rigaku Oxford Diffraction, 2019)
Numerical absorption correction based on gaussian integration over
			a multifaceted crystal model
Empirical absorption correction using spherical harmonics,
 implemented in SCALE3 ABSPACK scaling algorithm.
;
_exptl_absorpt_special_details     ?
_exptl_crystal_colour              'clear yellowish colourless'
_exptl_crystal_colour_lustre       clear
_exptl_crystal_colour_modifier     yellowish
_exptl_crystal_colour_primary      colourless
_exptl_crystal_density_diffrn      1.168
_exptl_crystal_density_meas        ?
_exptl_crystal_density_method      ?
_exptl_crystal_description         needle
_exptl_crystal_F_000               1560
loop_
  _exptl_crystal_face_index_h
  _exptl_crystal_face_index_k
  _exptl_crystal_face_index_l
  _exptl_crystal_face_perp_dist
 0 0 -1 0.1107
 0 0 1 0.1227
 1 0 0 0.0076
 -1 0 0 0.0166
 0 1 0 0.0132
 0 -1 0 0.0132
 -3 5 1 0.0442

_exptl_crystal_size_max            0.234
_exptl_crystal_size_mid            0.026
_exptl_crystal_size_min            0.024
loop_
  _exptl_oxdiff_crystal_face_indexfrac_h
  _exptl_oxdiff_crystal_face_indexfrac_k
  _exptl_oxdiff_crystal_face_indexfrac_l
  _exptl_oxdiff_crystal_face_x
  _exptl_oxdiff_crystal_face_y
  _exptl_oxdiff_crystal_face_z
 0.1210 0.0092 -1.0029 0.1317 0.0847 -0.1095
 -0.1210 -0.0092 1.0029 -0.1317 -0.0847 0.1095
 0.9945 -0.0003 0.0008 0.0128 -0.0468 -0.0239
 -0.9945 0.0003 -0.0008 -0.0128 0.0468 0.0239
 -0.0005 0.9978 0.0013 0.0591 -0.0143 0.0597
 0.0005 -0.9978 -0.0013 -0.0591 0.0143 -0.0597
 -3.1067 4.9806 1.0069 0.1253 -0.0159 0.4796

_exptl_transmission_factor_max     ?
_exptl_transmission_factor_min     ?
_diffrn_reflns_av_R_equivalents    0.0662
_diffrn_reflns_av_unetI/netI       0.0627
_diffrn_reflns_Laue_measured_fraction_full  0.997
_diffrn_reflns_Laue_measured_fraction_max  0.965
_diffrn_reflns_limit_h_max         35
_diffrn_reflns_limit_h_min         -36
_diffrn_reflns_limit_k_max         22
_diffrn_reflns_limit_k_min         -21
_diffrn_reflns_limit_l_max         9
_diffrn_reflns_limit_l_min         -9
_diffrn_reflns_number              23739
_diffrn_reflns_point_group_measured_fraction_full  0.809
_diffrn_reflns_point_group_measured_fraction_max  0.770
_diffrn_reflns_theta_full          67.684
_diffrn_reflns_theta_max           78.854
_diffrn_reflns_theta_min           2.904
_diffrn_ambient_environment        N~2~
_diffrn_ambient_temperature        150.00(10)
_diffrn_detector                   'Hybrid Pixel Array Detector'
_diffrn_detector_area_resol_mean   10.0000
_diffrn_detector_type              HyPix
_diffrn_measured_fraction_theta_full  0.997
_diffrn_measured_fraction_theta_max  0.965
_diffrn_measurement_details
;
List of Runs (angles in degrees, time in seconds):

  # Type    Start    End  Width  t~exp~   \w     \q     \k     \f   Frames
--------------------------------------------------------------------------
  1  \w    -20.00  75.00   0.50   14.00    --   46.95 -89.00-134.00  190
  2  \w     45.00  71.00   0.50   33.00    --  107.75 -61.00-120.00   52
  3  \w     47.00 104.00   0.50   33.00    --  107.75 -94.00-180.00  114
  4  \w     65.00 106.00   0.50   33.00    --  107.75 -77.00 -60.00   82
  5  \w     71.00 103.00   0.50   33.00    --  107.75 -77.00   0.00   64
  6  \w     79.00 105.00   0.50   33.00    --  107.75 -77.00  30.00   52
  7  \w     35.00  71.00   0.50   33.00    --  107.75 -61.00  60.00   72
  8  \w     41.00  69.00   0.50   33.00    --  107.75 -61.00  90.00   56
  9  \w     39.00  71.00   0.50   33.00    --  107.75 -77.00 150.00   64
 10  \w     40.00  71.00   0.50   33.00    --  107.75 -61.00 120.00   62
 11  \w     43.00  69.00   0.50   33.00    --  107.75 -77.00 120.00   52
 12  \w     40.00  65.00   0.50   33.00    --  107.75 -61.00  30.00   50
 13  \w    102.00 162.00   0.50   33.00    --  107.75  89.00 -18.00  120
 14  \w    139.00 175.00   0.50   33.00    --  107.75 125.00  60.00   72
 15  \w     98.00 168.00   0.50   33.00    --  107.75 125.00 150.00  140
 16  \w     98.00 136.00   0.50   33.00    --  107.75 125.00  60.00   76
 17  \w    -50.00 -23.00   0.50   33.00    --  -86.25  45.00-180.00   54
 18  \w    -75.00  26.00   0.50   14.00    --  -46.95  89.00 -18.00  202
 19  \w    -70.00 -45.00   0.50   33.00    --  -86.25  89.00 -18.00   50
 20  \w   -143.00-118.00   0.50   33.00    --  -86.25 -89.00-134.00   50
 21  \w   -117.00 -78.00   0.50   14.00    --  -46.95-125.00  30.00   78
 22  \w   -117.00 -73.00   0.50   14.00    --  -46.95-125.00  90.00   88
;
_diffrn_measurement_device         'four-circle diffractometer'
_diffrn_measurement_device_type    'XtaLAB Synergy, Dualflex, HyPix'
_diffrn_measurement_method         '\w scans'
_diffrn_orient_matrix_type        
 'CrysAlisPro convention (1999,Acta A55,543-557)'
_diffrn_orient_matrix_UB_11        0.0129481000
_diffrn_orient_matrix_UB_12        0.0593557000
_diffrn_orient_matrix_UB_13        -0.1292028000
_diffrn_orient_matrix_UB_21        -0.0470296000
_diffrn_orient_matrix_UB_22        -0.0142839000
_diffrn_orient_matrix_UB_23        -0.0902725000
_diffrn_orient_matrix_UB_31        -0.0240758000
_diffrn_orient_matrix_UB_32        0.0596677000
_diffrn_orient_matrix_UB_33        0.1068643000
_diffrn_radiation_monochromator    mirror
_diffrn_radiation_probe            x-ray
_diffrn_radiation_type             'Cu K\a'
_diffrn_radiation_wavelength       1.54184
_diffrn_source                     'micro-focus sealed X-ray tube'
_diffrn_source_type                'PhotonJet (Cu) X-ray Source'
_reflns_Friedel_coverage           0.485
_reflns_Friedel_fraction_full      0.589
_reflns_Friedel_fraction_max       0.543
_reflns_number_gt                  5747
_reflns_number_total               6876
_reflns_odcompleteness_completeness  99.16
_reflns_odcompleteness_iscentric   1
_reflns_odcompleteness_theta       74.33
_reflns_special_details
;
 Reflections were merged by SHELXL according to the crystal
 class for the calculation of statistics and refinement.
 
 _reflns_Friedel_fraction is defined as the number of unique
 Friedel pairs measured divided by the number that would be
 possible theoretically, ignoring centric projections and
 systematic absences.
;
_reflns_threshold_expression       'I > 2\s(I)'
_computing_cell_refinement         'CrysAlisPro 1.171.40.68a (Rigaku OD, 2019)'
_computing_data_collection         'CrysAlisPro 1.171.40.68a (Rigaku OD, 2019)'
_computing_data_reduction          'CrysAlisPro 1.171.40.68a (Rigaku OD, 2019)'
_computing_molecular_graphics      'Olex2 1.3-ac4 (Dolomanov et al., 2009)'
_computing_publication_material    'Olex2 1.3-ac4 (Dolomanov et al., 2009)'
_computing_structure_refinement    'ShelXL 2014/7 (Sheldrick, 2015)'
_computing_structure_solution      'SHELXT 2014/4 (Sheldrick, 2014)'
_refine_diff_density_max           0.637
_refine_diff_density_min           -0.388
_refine_diff_density_rms           0.124
_refine_ls_abs_structure_details
;
 Flack x determined using 1249 quotients [(I+)-(I-)]/[(I+)+(I-)]
 (Parsons, Flack and Wagner, Acta Cryst. B69 (2013) 249-259).
;
_refine_ls_abs_structure_Flack     -0.1(10)
_refine_ls_extinction_coef         .
_refine_ls_extinction_method       none
_refine_ls_goodness_of_fit_ref     1.465
_refine_ls_hydrogen_treatment      constr
_refine_ls_matrix_type             full
_refine_ls_number_parameters       517
_refine_ls_number_reflns           6876
_refine_ls_number_restraints       1
_refine_ls_R_factor_all            0.1530
_refine_ls_R_factor_gt             0.1389
_refine_ls_restrained_S_all        1.465
_refine_ls_shift/su_max            0.000
_refine_ls_shift/su_mean           0.000
_refine_ls_structure_factor_coef   Fsqd
_refine_ls_weighting_details      
 'w=1/[\s^2^(Fo^2^)+(0.2000P)^2^] where P=(Fo^2^+2Fc^2^)/3'
_refine_ls_weighting_scheme        calc
_refine_ls_wR_factor_gt            0.3553
_refine_ls_wR_factor_ref           0.3662
_refine_special_details            ?
_olex2_refinement_description
;
1. Fixed Uiso
 At 1.2 times of:
  All C(H) groups
 At 1.5 times of:
  All C(H,H,H) groups
2.a Aromatic/amide H refined with riding coordinates:
 C6(H6), C7(H7), C10(H10), C13(H13), C14(H14), C16(H16), C22(H22), C27(H27),
 C28(H28), C32(H32), C33(H33), C34(H34), C38(H38), C39(H39), C45(H45), C49(H49),
  C50(H50), C52(H52)
2.b Idealised Me refined as rotating group:
 C2(H2A,H2B,H2C), C3(H3A,H3B,H3C), C4(H4A,H4B,H4C), C18(H18A,H18B,H18C),
 C19(H19A,H19B,H19C), C20(H20A,H20B,H20C), C42(H42A,H42B,H42C), C43(H43A,H43B,
 H43C), C44(H44A,H44B,H44C), C54(H54A,H54B,H54C), C55(H55A,H55B,H55C), C56(H56A,
 H56B,H56C)
;
_atom_sites_solution_hydrogens     geom
_atom_sites_solution_primary       dual
_atom_sites_solution_secondary     ?
loop_
  _atom_site_label
  _atom_site_type_symbol
  _atom_site_fract_x
  _atom_site_fract_y
  _atom_site_fract_z
  _atom_site_U_iso_or_equiv
  _atom_site_adp_type
  _atom_site_occupancy
  _atom_site_site_symmetry_order
  _atom_site_calc_flag
  _atom_site_refinement_flags_posn
  _atom_site_refinement_flags_adp
  _atom_site_refinement_flags_occupancy
  _atom_site_disorder_assembly
  _atom_site_disorder_group
 C1 C -0.3384(4) -0.0528(5) -1.2316(14) 0.056(2) Uani 1 1 d . . . . .
 C2 C -0.3508(6) 0.0231(6) -1.150(2) 0.090(4) Uani 1 1 d . . . . .
 H2A H -0.3299 0.0319 -1.0587 0.135 Uiso 1 1 calc R U . . .
 H2B H -0.3828 0.0221 -1.1116 0.135 Uiso 1 1 calc R U . . .
 H2C H -0.3471 0.0620 -1.2301 0.135 Uiso 1 1 calc R U . . .
 C3 C -0.2914(6) -0.0477(8) -1.313(2) 0.093(5) Uani 1 1 d . . . . .
 H3A H -0.2821 -0.0958 -1.3517 0.139 Uiso 1 1 calc R U . . .
 H3B H -0.2685 -0.0301 -1.2341 0.139 Uiso 1 1 calc R U . . .
 H3C H -0.2931 -0.0139 -1.4039 0.139 Uiso 1 1 calc R U . . .
 C4 C -0.3768(6) -0.0643(7) -1.361(2) 0.093(5) Uani 1 1 d . . . . .
 H4A H -0.4073 -0.0569 -1.3115 0.139 Uiso 1 1 calc R U . . .
 H4B H -0.3748 -0.1137 -1.4043 0.139 Uiso 1 1 calc R U . . .
 H4C H -0.3726 -0.0293 -1.4494 0.139 Uiso 1 1 calc R U . . .
 C5 C -0.3385(3) -0.1128(4) -1.1002(13) 0.049(2) Uani 1 1 d . . . . .
 C6 C -0.3180(4) -0.1031(5) -0.9456(13) 0.056(2) Uani 1 1 d . . . . .
 H6 H -0.3038 -0.0579 -0.9212 0.067 Uiso 1 1 calc R U . . .
 C7 C -0.3181(4) -0.1583(4) -0.8267(13) 0.056(3) Uani 1 1 d . . . . .
 H7 H -0.3044 -0.1492 -0.7242 0.067 Uiso 1 1 calc R U . . .
 C8 C -0.3388(3) -0.2285(4) -0.8587(11) 0.0370(17) Uani 1 1 d . . . . .
 C9 C -0.3592(3) -0.2380(4) -1.0145(10) 0.0365(16) Uani 1 1 d . . . . .
 C10 C -0.3575(3) -0.1817(4) -1.1317(11) 0.0414(18) Uani 1 1 d . . . . .
 H10 H -0.3697 -0.1910 -1.2363 0.050 Uiso 1 1 calc R U . . .
 C11 C -0.3875(3) -0.3075(4) -1.0450(10) 0.0378(17) Uani 1 1 d . . . . .
 C12 C -0.3901(3) -0.3636(4) -0.9217(10) 0.0382(17) Uani 1 1 d . . . . .
 C13 C -0.4238(4) -0.4166(4) -0.9441(11) 0.048(2) Uani 1 1 d . . . . .
 H13 H -0.4279 -0.4525 -0.8629 0.058 Uiso 1 1 calc R U . . .
 C14 C -0.4524(4) -0.4190(5) -1.0843(12) 0.056(3) Uani 1 1 d . . . . .
 H14 H -0.4750 -0.4563 -1.0927 0.068 Uiso 1 1 calc R U . . .
 C15 C -0.4486(3) -0.3676(4) -1.2125(11) 0.0447(19) Uani 1 1 d . . . . .
 C16 C -0.4163(3) -0.3105(4) -1.1862(10) 0.0383(17) Uani 1 1 d . . . . .
 H16 H -0.4138 -0.2731 -1.2647 0.046 Uiso 1 1 calc R U . . .
 C17 C -0.4791(4) -0.3709(4) -1.3665(11) 0.048(2) Uani 1 1 d . . . . .
 C18 C -0.5307(5) -0.3716(7) -1.3270(15) 0.074(3) Uani 1 1 d . . . . .
 H18A H -0.5386 -0.3283 -1.2639 0.111 Uiso 1 1 calc R U . . .
 H18B H -0.5381 -0.4152 -1.2640 0.111 Uiso 1 1 calc R U . . .
 H18C H -0.5486 -0.3718 -1.4279 0.111 Uiso 1 1 calc R U . . .
 C19 C -0.4638(5) -0.4450(6) -1.4597(14) 0.063(3) Uani 1 1 d . . . . .
 H19A H -0.4747 -0.4872 -1.3982 0.095 Uiso 1 1 calc R U . . .
 H19B H -0.4300 -0.4468 -1.4686 0.095 Uiso 1 1 calc R U . . .
 H19C H -0.4775 -0.4457 -1.5681 0.095 Uiso 1 1 calc R U . . .
 C20 C -0.4661(5) -0.3121(6) -1.4942(15) 0.077(4) Uani 1 1 d . . . . .
 H20A H -0.4347 -0.3211 -1.5343 0.115 Uiso 1 1 calc R U . . .
 H20B H -0.4674 -0.2639 -1.4439 0.115 Uiso 1 1 calc R U . . .
 H20C H -0.4880 -0.3141 -1.5846 0.115 Uiso 1 1 calc R U . . .
 C21 C -0.3373(3) -0.2891(4) -0.7340(10) 0.0336(15) Uani 1 1 d . . . . .
 C22 C -0.3155(3) -0.2804(4) -0.5830(10) 0.0349(16) Uani 1 1 d . . . . .
 H22 H -0.3019 -0.2348 -0.5584 0.042 Uiso 1 1 calc R U . . .
 C23 C -0.3127(3) -0.3359(4) -0.4668(9) 0.0305(14) Uani 1 1 d . . . . .
 C24 C -0.3318(3) -0.4079(4) -0.5070(10) 0.0351(16) Uani 1 1 d . . . . .
 C25 C -0.3527(3) -0.4187(4) -0.6667(10) 0.0360(16) Uani 1 1 d . . . . .
 C26 C -0.3594(3) -0.3585(4) -0.7746(9) 0.0347(16) Uani 1 1 d . . . . .
 C27 C -0.3625(3) -0.4946(4) -0.7059(10) 0.0380(17) Uani 1 1 d . . . . .
 H27 H -0.3699 -0.5067 -0.8146 0.046 Uiso 1 1 calc R U . . .
 C28 C -0.3615(3) -0.5502(4) -0.5903(9) 0.0370(16) Uani 1 1 d . . . . .
 H28 H -0.3679 -0.5987 -0.6226 0.044 Uiso 1 1 calc R U . . .
 C29 C -0.3507(3) -0.5348(4) -0.4208(9) 0.0354(16) Uani 1 1 d . . . . .
 C30 C -0.3293(3) -0.4657(4) -0.3879(9) 0.0317(15) Uani 1 1 d . . . . .
 C31 C -0.3069(3) -0.4535(4) -0.2329(9) 0.0336(15) Uani 1 1 d . . . . .
 C32 C -0.2868(3) -0.3811(4) -0.1994(11) 0.0398(17) Uani 1 1 d . . . . .
 H32 H -0.2715 -0.3727 -0.0995 0.048 Uiso 1 1 calc R U . . .
 C33 C -0.2900(3) -0.3260(4) -0.3108(10) 0.0359(16) Uani 1 1 d . . . . .
 H33 H -0.2771 -0.2800 -0.2855 0.043 Uiso 1 1 calc R U . . .
 C34 C -0.3033(3) -0.5115(4) -0.1222(11) 0.0417(17) Uani 1 1 d . . . . .
 H34 H -0.2842 -0.5059 -0.0295 0.050 Uiso 1 1 calc R U . . .
 C35 C -0.3274(3) -0.5783(4) -0.1448(10) 0.0346(15) Uani 1 1 d . . . . .
 C36 C -0.3545(3) -0.5886(3) -0.2892(9) 0.0307(14) Uani 1 1 d . . . . .
 C37 C -0.3892(3) -0.6503(4) -0.2931(9) 0.0351(16) Uani 1 1 d . . . . .
 C38 C -0.4270(3) -0.6529(4) -0.4047(10) 0.0389(17) Uani 1 1 d . . . . .
 H38 H -0.4314 -0.6133 -0.4765 0.047 Uiso 1 1 calc R U . . .
 C39 C -0.4579(3) -0.7116(4) -0.4126(11) 0.0445(19) Uani 1 1 d . . . . .
 H39 H -0.4827 -0.7105 -0.4881 0.053 Uiso 1 1 calc R U . . .
 C40 C -0.4526(3) -0.7738(4) -0.3076(11) 0.0409(18) Uani 1 1 d . . . . .
 C41 C -0.4849(3) -0.8398(4) -0.3342(14) 0.049(2) Uani 1 1 d . . . . .
 C42 C -0.4820(5) -0.8886(6) -0.1749(19) 0.078(4) Uani 1 1 d . . . . .
 H42A H -0.4908 -0.8594 -0.0806 0.117 Uiso 1 1 calc R U . . .
 H42B H -0.4503 -0.9064 -0.1611 0.117 Uiso 1 1 calc R U . . .
 H42C H -0.5031 -0.9299 -0.1853 0.117 Uiso 1 1 calc R U . . .
 C43 C -0.5355(5) -0.8182(6) -0.341(2) 0.088(5) Uani 1 1 d . . . . .
 H43A H -0.5410 -0.7881 -0.4366 0.132 Uiso 1 1 calc R U . . .
 H43B H -0.5435 -0.7907 -0.2432 0.132 Uiso 1 1 calc R U . . .
 H43C H -0.5547 -0.8620 -0.3469 0.132 Uiso 1 1 calc R U . . .
 C44 C -0.4697(7) -0.8826(9) -0.479(3) 0.116(7) Uani 1 1 d . . . . .
 H44A H -0.4548 -0.9276 -0.4436 0.174 Uiso 1 1 calc R U . . .
 H44B H -0.4477 -0.8539 -0.5429 0.174 Uiso 1 1 calc R U . . .
 H44C H -0.4967 -0.8944 -0.5460 0.174 Uiso 1 1 calc R U . . .
 C45 C -0.4168(3) -0.7692(4) -0.1922(10) 0.0367(16) Uani 1 1 d . . . . .
 H45 H -0.4135 -0.8086 -0.1190 0.044 Uiso 1 1 calc R U . . .
 C46 C -0.3847(3) -0.7092(3) -0.1760(9) 0.0326(15) Uani 1 1 d . . . . .
 C47 C -0.3506(3) -0.7035(4) -0.0441(10) 0.0366(16) Uani 1 1 d . . . . .
 C48 C -0.3233(3) -0.6398(4) -0.0238(9) 0.0322(15) Uani 1 1 d . . . . .
 C49 C -0.2913(3) -0.6363(4) 0.1056(11) 0.0443(19) Uani 1 1 d . . . . .
 H49 H -0.2725 -0.5945 0.1182 0.053 Uiso 1 1 calc R U . . .
 C50 C -0.2871(3) -0.6944(4) 0.2163(10) 0.0428(18) Uani 1 1 d . . . . .
 H50 H -0.2654 -0.6908 0.3022 0.051 Uiso 1 1 calc R U . . .
 C51 C -0.3146(3) -0.7580(4) 0.2020(10) 0.0378(16) Uani 1 1 d . . . . .
 C52 C -0.3455(3) -0.7620(4) 0.0741(10) 0.0372(16) Uani 1 1 d . . . . .
 H52 H -0.3640 -0.8042 0.0629 0.045 Uiso 1 1 calc R U . . .
 C53 C -0.3101(3) -0.8196(5) 0.3358(11) 0.0457(19) Uani 1 1 d . . . . .
 C54 C -0.2597(4) -0.8458(6) 0.3481(12) 0.063(3) Uani 1 1 d . . . . .
 H54A H -0.2582 -0.8890 0.4171 0.094 Uiso 1 1 calc R U . . .
 H54B H -0.2405 -0.8073 0.3952 0.094 Uiso 1 1 calc R U . . .
 H54C H -0.2481 -0.8578 0.2398 0.094 Uiso 1 1 calc R U . . .
 C55 C -0.3284(4) -0.7888(6) 0.4976(12) 0.056(2) Uani 1 1 d . . . . .
 H55A H -0.3319 -0.8283 0.5759 0.083 Uiso 1 1 calc R U . . .
 H55B H -0.3585 -0.7655 0.4797 0.083 Uiso 1 1 calc R U . . .
 H55C H -0.3064 -0.7529 0.5398 0.083 Uiso 1 1 calc R U . . .
 C56 C -0.3402(5) -0.8864(5) 0.2924(15) 0.070(3) Uani 1 1 d . . . . .
 H56A H -0.3713 -0.8703 0.2617 0.105 Uiso 1 1 calc R U . . .
 H56B H -0.3423 -0.9187 0.3864 0.105 Uiso 1 1 calc R U . . .
 H56C H -0.3261 -0.9126 0.2017 0.105 Uiso 1 1 calc R U . . .

loop_
  _atom_site_aniso_label
  _atom_site_aniso_U_11
  _atom_site_aniso_U_22
  _atom_site_aniso_U_33
  _atom_site_aniso_U_23
  _atom_site_aniso_U_13
  _atom_site_aniso_U_12
 C1 0.071(6) 0.043(4) 0.053(6) 0.016(4) -0.005(5) 0.000(4)
 C2 0.147(13) 0.045(5) 0.078(9) 0.011(5) -0.002(9) 0.034(6)
 C3 0.122(11) 0.082(7) 0.074(9) 0.036(7) 0.042(9) 0.023(7)
 C4 0.139(13) 0.059(6) 0.080(10) 0.028(6) -0.047(9) -0.032(7)
 C5 0.059(5) 0.032(3) 0.054(6) 0.004(4) -0.011(4) -0.008(3)
 C6 0.075(6) 0.044(4) 0.048(6) 0.015(4) -0.014(5) -0.019(4)
 C7 0.088(7) 0.031(3) 0.049(5) 0.003(4) -0.025(5) -0.020(4)
 C8 0.048(4) 0.024(3) 0.040(4) 0.004(3) 0.006(3) -0.002(3)
 C9 0.053(4) 0.028(3) 0.028(4) -0.003(3) 0.006(3) 0.000(3)
 C10 0.057(5) 0.030(3) 0.037(4) 0.005(3) 0.008(4) -0.006(3)
 C11 0.062(5) 0.023(3) 0.028(4) 0.000(3) 0.004(3) -0.001(3)
 C12 0.057(5) 0.030(3) 0.028(4) 0.008(3) 0.000(3) -0.001(3)
 C13 0.075(6) 0.030(3) 0.039(4) 0.013(3) -0.017(4) -0.014(4)
 C14 0.090(7) 0.039(4) 0.041(5) 0.000(4) -0.015(5) -0.015(4)
 C15 0.071(6) 0.030(3) 0.033(4) 0.004(3) -0.008(4) 0.000(3)
 C16 0.060(5) 0.031(3) 0.024(4) 0.000(3) -0.002(3) -0.002(3)
 C17 0.077(6) 0.030(3) 0.038(5) 0.009(3) -0.022(4) -0.011(4)
 C18 0.105(9) 0.079(7) 0.038(6) 0.016(5) -0.017(6) -0.015(6)
 C19 0.090(8) 0.061(5) 0.039(5) -0.012(4) -0.017(5) 0.001(5)
 C20 0.123(10) 0.055(5) 0.052(7) 0.022(5) -0.035(7) -0.013(6)
 C21 0.044(4) 0.025(3) 0.032(4) 0.000(3) 0.001(3) 0.002(3)
 C22 0.043(4) 0.027(3) 0.034(4) -0.004(3) 0.007(3) -0.006(3)
 C23 0.038(4) 0.029(3) 0.024(3) -0.004(3) 0.004(3) -0.003(3)
 C24 0.051(4) 0.029(3) 0.025(4) 0.012(3) -0.001(3) -0.008(3)
 C25 0.054(4) 0.027(3) 0.027(4) -0.003(3) -0.003(3) 0.001(3)
 C26 0.057(4) 0.024(3) 0.023(3) 0.000(2) 0.002(3) 0.001(3)
 C27 0.065(5) 0.025(3) 0.024(4) 0.002(3) 0.000(3) -0.002(3)
 C28 0.060(5) 0.028(3) 0.023(4) 0.005(3) 0.000(3) 0.000(3)
 C29 0.054(4) 0.027(3) 0.025(4) -0.001(3) -0.004(3) 0.007(3)
 C30 0.046(4) 0.026(3) 0.023(3) 0.005(3) 0.002(3) -0.001(3)
 C31 0.049(4) 0.031(3) 0.021(3) -0.001(3) -0.002(3) -0.006(3)
 C32 0.051(4) 0.032(3) 0.037(4) -0.005(3) -0.015(3) -0.001(3)
 C33 0.051(4) 0.029(3) 0.027(4) 0.001(3) -0.005(3) -0.008(3)
 C34 0.048(4) 0.048(4) 0.029(4) 0.002(3) 0.000(3) -0.007(3)
 C35 0.046(4) 0.033(3) 0.025(4) 0.002(3) 0.002(3) -0.003(3)
 C36 0.041(4) 0.026(3) 0.026(3) 0.005(3) 0.002(3) 0.005(3)
 C37 0.056(4) 0.030(3) 0.019(3) 0.003(3) -0.003(3) 0.003(3)
 C38 0.052(4) 0.031(3) 0.034(4) 0.004(3) -0.009(3) 0.001(3)
 C39 0.065(5) 0.032(3) 0.037(4) 0.005(3) -0.018(4) 0.002(3)
 C40 0.059(5) 0.030(3) 0.034(4) 0.005(3) -0.001(4) -0.006(3)
 C41 0.053(5) 0.029(3) 0.066(6) 0.009(4) -0.016(4) -0.005(3)
 C42 0.084(8) 0.053(5) 0.097(10) 0.045(6) -0.044(7) -0.021(5)
 C43 0.076(7) 0.051(5) 0.137(15) 0.023(7) -0.037(9) -0.013(5)
 C44 0.146(15) 0.086(9) 0.115(15) -0.050(10) 0.024(13) -0.026(9)
 C45 0.042(4) 0.034(3) 0.034(4) 0.013(3) -0.001(3) 0.002(3)
 C46 0.052(4) 0.024(3) 0.022(3) -0.002(2) 0.001(3) 0.005(3)
 C47 0.046(4) 0.038(4) 0.026(4) 0.010(3) -0.002(3) 0.006(3)
 C48 0.035(3) 0.031(3) 0.030(4) 0.000(3) 0.002(3) 0.000(3)
 C49 0.058(5) 0.046(4) 0.029(4) 0.007(3) -0.010(3) -0.009(4)
 C50 0.064(5) 0.047(4) 0.017(4) 0.002(3) 0.001(3) -0.003(4)
 C51 0.051(4) 0.034(3) 0.029(4) 0.001(3) 0.004(3) -0.004(3)
 C52 0.050(4) 0.031(3) 0.031(4) 0.001(3) -0.006(3) 0.006(3)
 C53 0.061(5) 0.048(4) 0.027(4) 0.014(3) 0.007(4) 0.006(4)
 C54 0.096(8) 0.069(5) 0.023(4) 0.018(4) 0.010(5) 0.022(5)
 C55 0.070(6) 0.070(6) 0.027(4) 0.006(4) 0.009(4) 0.014(5)
 C56 0.113(9) 0.045(4) 0.052(6) 0.027(4) -0.015(6) 0.000(5)

_geom_special_details
;
 All esds (except the esd in the dihedral angle between two l.s. planes)
 are estimated using the full covariance matrix.  The cell esds are taken
 into account individually in the estimation of esds in distances, angles
 and torsion angles; correlations between esds in cell parameters are only
 used when they are defined by crystal symmetry.  An approximate (isotropic)
 treatment of cell esds is used for estimating esds involving l.s. planes.
;
loop_
  _geom_bond_atom_site_label_1
  _geom_bond_atom_site_label_2
  _geom_bond_distance
  _geom_bond_site_symmetry_2
  _geom_bond_publ_flag
 C1 C2 1.559(15) . ?
 C1 C3 1.487(18) . ?
 C1 C4 1.525(17) . ?
 C1 C5 1.518(12) . ?
 C2 H2A 0.9600 . ?
 C2 H2B 0.9600 . ?
 C2 H2C 0.9600 . ?
 C3 H3A 0.9600 . ?
 C3 H3B 0.9600 . ?
 C3 H3C 0.9600 . ?
 C4 H4A 0.9600 . ?
 C4 H4B 0.9600 . ?
 C4 H4C 0.9600 . ?
 C5 C6 1.390(14) . ?
 C5 C10 1.377(11) . ?
 C6 H6 0.9300 . ?
 C6 C7 1.385(12) . ?
 C7 H7 0.9300 . ?
 C7 C8 1.419(10) . ?
 C8 C9 1.399(12) . ?
 C8 C21 1.488(10) . ?
 C9 C10 1.390(11) . ?
 C9 C11 1.508(10) . ?
 C10 H10 0.9300 . ?
 C11 C12 1.422(10) . ?
 C11 C16 1.405(11) . ?
 C12 C13 1.363(11) . ?
 C12 C26 1.477(11) . ?
 C13 H13 0.9300 . ?
 C13 C14 1.395(13) . ?
 C14 H14 0.9300 . ?
 C14 C15 1.396(12) . ?
 C15 C16 1.393(11) . ?
 C15 C17 1.517(12) . ?
 C16 H16 0.9300 . ?
 C17 C18 1.497(17) . ?
 C17 C19 1.596(13) . ?
 C17 C20 1.526(13) . ?
 C18 H18A 0.9600 . ?
 C18 H18B 0.9600 . ?
 C18 H18C 0.9600 . ?
 C19 H19A 0.9600 . ?
 C19 H19B 0.9600 . ?
 C19 H19C 0.9600 . ?
 C20 H20A 0.9600 . ?
 C20 H20B 0.9600 . ?
 C20 H20C 0.9600 . ?
 C21 C22 1.378(12) . ?
 C21 C26 1.440(10) . ?
 C22 H22 0.9300 . ?
 C22 C23 1.376(10) . ?
 C23 C24 1.444(9) . ?
 C23 C33 1.428(10) . ?
 C24 C25 1.435(11) . ?
 C24 C30 1.422(9) . ?
 C25 C26 1.406(10) . ?
 C25 C27 1.432(9) . ?
 C27 H27 0.9300 . ?
 C27 C28 1.372(10) . ?
 C28 H28 0.9300 . ?
 C28 C29 1.433(11) . ?
 C29 C30 1.410(10) . ?
 C29 C36 1.445(10) . ?
 C30 C31 1.423(10) . ?
 C31 C32 1.450(9) . ?
 C31 C34 1.382(10) . ?
 C32 H32 0.9300 . ?
 C32 C33 1.345(11) . ?
 C33 H33 0.9300 . ?
 C34 H34 0.9300 . ?
 C34 C35 1.397(11) . ?
 C35 C36 1.409(11) . ?
 C35 C48 1.483(10) . ?
 C36 C37 1.485(10) . ?
 C37 C38 1.403(11) . ?
 C37 C46 1.430(9) . ?
 C38 H38 0.9300 . ?
 C38 C39 1.375(11) . ?
 C39 H39 0.9300 . ?
 C39 C40 1.415(10) . ?
 C40 C41 1.515(11) . ?
 C40 C45 1.380(12) . ?
 C41 C42 1.563(14) . ?
 C41 C43 1.486(16) . ?
 C41 C44 1.470(19) . ?
 C42 H42A 0.9600 . ?
 C42 H42B 0.9600 . ?
 C42 H42C 0.9600 . ?
 C43 H43A 0.9600 . ?
 C43 H43B 0.9600 . ?
 C43 H43C 0.9600 . ?
 C44 H44A 0.9600 . ?
 C44 H44B 0.9600 . ?
 C44 H44C 0.9600 . ?
 C45 H45 0.9300 . ?
 C45 C46 1.419(10) . ?
 C46 C47 1.443(10) . ?
 C47 C48 1.394(10) . ?
 C47 C52 1.432(10) . ?
 C48 C49 1.386(11) . ?
 C49 H49 0.9300 . ?
 C49 C50 1.384(11) . ?
 C50 H50 0.9300 . ?
 C50 C51 1.391(11) . ?
 C51 C52 1.358(11) . ?
 C51 C53 1.556(11) . ?
 C52 H52 0.9300 . ?
 C53 C54 1.508(15) . ?
 C53 C55 1.514(13) . ?
 C53 C56 1.518(15) . ?
 C54 H54A 0.9600 . ?
 C54 H54B 0.9600 . ?
 C54 H54C 0.9600 . ?
 C55 H55A 0.9600 . ?
 C55 H55B 0.9600 . ?
 C55 H55C 0.9600 . ?
 C56 H56A 0.9600 . ?
 C56 H56B 0.9600 . ?
 C56 H56C 0.9600 . ?

loop_
  _geom_angle_atom_site_label_1
  _geom_angle_atom_site_label_2
  _geom_angle_atom_site_label_3
  _geom_angle
  _geom_angle_site_symmetry_1
  _geom_angle_site_symmetry_3
  _geom_angle_publ_flag
 C3 C1 C2 109.4(11) . . ?
 C3 C1 C4 110.2(13) . . ?
 C3 C1 C5 110.8(9) . . ?
 C4 C1 C2 104.5(10) . . ?
 C5 C1 C2 109.3(10) . . ?
 C5 C1 C4 112.6(8) . . ?
 C1 C2 H2A 109.5 . . ?
 C1 C2 H2B 109.5 . . ?
 C1 C2 H2C 109.5 . . ?
 H2A C2 H2B 109.5 . . ?
 H2A C2 H2C 109.5 . . ?
 H2B C2 H2C 109.5 . . ?
 C1 C3 H3A 109.5 . . ?
 C1 C3 H3B 109.5 . . ?
 C1 C3 H3C 109.5 . . ?
 H3A C3 H3B 109.5 . . ?
 H3A C3 H3C 109.5 . . ?
 H3B C3 H3C 109.5 . . ?
 C1 C4 H4A 109.5 . . ?
 C1 C4 H4B 109.5 . . ?
 C1 C4 H4C 109.5 . . ?
 H4A C4 H4B 109.5 . . ?
 H4A C4 H4C 109.5 . . ?
 H4B C4 H4C 109.5 . . ?
 C6 C5 C1 122.7(7) . . ?
 C10 C5 C1 121.0(9) . . ?
 C10 C5 C6 116.3(8) . . ?
 C5 C6 H6 118.9 . . ?
 C7 C6 C5 122.2(8) . . ?
 C7 C6 H6 118.9 . . ?
 C6 C7 H7 119.5 . . ?
 C6 C7 C8 121.1(9) . . ?
 C8 C7 H7 119.5 . . ?
 C7 C8 C21 121.4(8) . . ?
 C9 C8 C7 116.4(7) . . ?
 C9 C8 C21 122.2(6) . . ?
 C8 C9 C11 118.0(7) . . ?
 C10 C9 C8 120.7(7) . . ?
 C10 C9 C11 121.0(8) . . ?
 C5 C10 C9 123.2(9) . . ?
 C5 C10 H10 118.4 . . ?
 C9 C10 H10 118.4 . . ?
 C12 C11 C9 120.3(7) . . ?
 C16 C11 C9 118.2(6) . . ?
 C16 C11 C12 120.8(7) . . ?
 C11 C12 C26 119.3(7) . . ?
 C13 C12 C11 116.3(7) . . ?
 C13 C12 C26 124.2(7) . . ?
 C12 C13 H13 118.8 . . ?
 C12 C13 C14 122.5(7) . . ?
 C14 C13 H13 118.8 . . ?
 C13 C14 H14 118.7 . . ?
 C13 C14 C15 122.6(8) . . ?
 C15 C14 H14 118.7 . . ?
 C14 C15 C17 122.7(8) . . ?
 C16 C15 C14 115.4(8) . . ?
 C16 C15 C17 121.9(7) . . ?
 C11 C16 H16 118.9 . . ?
 C15 C16 C11 122.3(7) . . ?
 C15 C16 H16 118.9 . . ?
 C15 C17 C19 105.4(7) . . ?
 C15 C17 C20 113.1(7) . . ?
 C18 C17 C15 112.4(8) . . ?
 C18 C17 C19 111.0(8) . . ?
 C18 C17 C20 112.7(9) . . ?
 C20 C17 C19 101.4(9) . . ?
 C17 C18 H18A 109.5 . . ?
 C17 C18 H18B 109.5 . . ?
 C17 C18 H18C 109.5 . . ?
 H18A C18 H18B 109.5 . . ?
 H18A C18 H18C 109.5 . . ?
 H18B C18 H18C 109.5 . . ?
 C17 C19 H19A 109.5 . . ?
 C17 C19 H19B 109.5 . . ?
 C17 C19 H19C 109.5 . . ?
 H19A C19 H19B 109.5 . . ?
 H19A C19 H19C 109.5 . . ?
 H19B C19 H19C 109.5 . . ?
 C17 C20 H20A 109.5 . . ?
 C17 C20 H20B 109.5 . . ?
 C17 C20 H20C 109.5 . . ?
 H20A C20 H20B 109.5 . . ?
 H20A C20 H20C 109.5 . . ?
 H20B C20 H20C 109.5 . . ?
 C22 C21 C8 122.0(6) . . ?
 C22 C21 C26 119.8(6) . . ?
 C26 C21 C8 118.2(7) . . ?
 C21 C22 H22 118.4 . . ?
 C23 C22 C21 123.3(6) . . ?
 C23 C22 H22 118.4 . . ?
 C22 C23 C24 118.7(7) . . ?
 C22 C23 C33 122.5(6) . . ?
 C33 C23 C24 118.7(6) . . ?
 C25 C24 C23 118.6(6) . . ?
 C30 C24 C23 119.2(7) . . ?
 C30 C24 C25 122.1(6) . . ?
 C26 C25 C24 120.7(6) . . ?
 C26 C25 C27 125.1(7) . . ?
 C27 C25 C24 114.1(6) . . ?
 C21 C26 C12 119.6(6) . . ?
 C25 C26 C12 122.2(6) . . ?
 C25 C26 C21 118.1(7) . . ?
 C25 C27 H27 118.5 . . ?
 C28 C27 C25 123.0(7) . . ?
 C28 C27 H27 118.5 . . ?
 C27 C28 H28 119.5 . . ?
 C27 C28 C29 121.0(6) . . ?
 C29 C28 H28 119.5 . . ?
 C28 C29 C36 124.0(6) . . ?
 C30 C29 C28 116.3(6) . . ?
 C30 C29 C36 119.1(7) . . ?
 C24 C30 C31 120.4(6) . . ?
 C29 C30 C24 119.9(7) . . ?
 C29 C30 C31 119.7(6) . . ?
 C30 C31 C32 118.7(6) . . ?
 C34 C31 C30 119.1(6) . . ?
 C34 C31 C32 122.2(7) . . ?
 C31 C32 H32 119.6 . . ?
 C33 C32 C31 120.9(7) . . ?
 C33 C32 H32 119.6 . . ?
 C23 C33 H33 119.0 . . ?
 C32 C33 C23 122.0(6) . . ?
 C32 C33 H33 119.0 . . ?
 C31 C34 H34 118.9 . . ?
 C31 C34 C35 122.2(8) . . ?
 C35 C34 H34 118.9 . . ?
 C34 C35 C36 119.1(7) . . ?
 C34 C35 C48 121.3(7) . . ?
 C36 C35 C48 119.5(6) . . ?
 C29 C36 C37 122.5(7) . . ?
 C35 C36 C29 118.9(6) . . ?
 C35 C36 C37 118.4(6) . . ?
 C38 C37 C36 123.0(6) . . ?
 C38 C37 C46 118.0(7) . . ?
 C46 C37 C36 119.0(7) . . ?
 C37 C38 H38 118.6 . . ?
 C39 C38 C37 122.8(7) . . ?
 C39 C38 H38 118.6 . . ?
 C38 C39 H39 119.5 . . ?
 C38 C39 C40 121.0(8) . . ?
 C40 C39 H39 119.5 . . ?
 C39 C40 C41 118.2(8) . . ?
 C45 C40 C39 115.9(7) . . ?
 C45 C40 C41 125.9(7) . . ?
 C40 C41 C42 107.1(8) . . ?
 C43 C41 C40 112.4(7) . . ?
 C43 C41 C42 103.1(11) . . ?
 C44 C41 C40 110.5(10) . . ?
 C44 C41 C42 110.3(10) . . ?
 C44 C41 C43 113.0(13) . . ?
 C41 C42 H42A 109.5 . . ?
 C41 C42 H42B 109.5 . . ?
 C41 C42 H42C 109.5 . . ?
 H42A C42 H42B 109.5 . . ?
 H42A C42 H42C 109.5 . . ?
 H42B C42 H42C 109.5 . . ?
 C41 C43 H43A 109.5 . . ?
 C41 C43 H43B 109.5 . . ?
 C41 C43 H43C 109.5 . . ?
 H43A C43 H43B 109.5 . . ?
 H43A C43 H43C 109.5 . . ?
 H43B C43 H43C 109.5 . . ?
 C41 C44 H44A 109.5 . . ?
 C41 C44 H44B 109.5 . . ?
 C41 C44 H44C 109.5 . . ?
 H44A C44 H44B 109.5 . . ?
 H44A C44 H44C 109.5 . . ?
 H44B C44 H44C 109.5 . . ?
 C40 C45 H45 117.3 . . ?
 C40 C45 C46 125.4(6) . . ?
 C46 C45 H45 117.3 . . ?
 C37 C46 C47 119.7(6) . . ?
 C45 C46 C37 116.6(7) . . ?
 C45 C46 C47 123.5(6) . . ?
 C48 C47 C46 121.1(6) . . ?
 C48 C47 C52 118.3(7) . . ?
 C52 C47 C46 120.6(7) . . ?
 C47 C48 C35 119.7(7) . . ?
 C49 C48 C35 121.1(6) . . ?
 C49 C48 C47 119.2(7) . . ?
 C48 C49 H49 119.6 . . ?
 C50 C49 C48 120.8(7) . . ?
 C50 C49 H49 119.6 . . ?
 C49 C50 H50 119.3 . . ?
 C49 C50 C51 121.5(8) . . ?
 C51 C50 H50 119.3 . . ?
 C50 C51 C53 119.0(8) . . ?
 C52 C51 C50 117.9(7) . . ?
 C52 C51 C53 123.0(7) . . ?
 C47 C52 H52 118.8 . . ?
 C51 C52 C47 122.4(7) . . ?
 C51 C52 H52 118.8 . . ?
 C54 C53 C51 110.3(7) . . ?
 C54 C53 C55 112.5(8) . . ?
 C54 C53 C56 107.3(8) . . ?
 C55 C53 C51 108.2(7) . . ?
 C55 C53 C56 107.5(9) . . ?
 C56 C53 C51 111.2(8) . . ?
 C53 C54 H54A 109.5 . . ?
 C53 C54 H54B 109.5 . . ?
 C53 C54 H54C 109.5 . . ?
 H54A C54 H54B 109.5 . . ?
 H54A C54 H54C 109.5 . . ?
 H54B C54 H54C 109.5 . . ?
 C53 C55 H55A 109.5 . . ?
 C53 C55 H55B 109.5 . . ?
 C53 C55 H55C 109.5 . . ?
 H55A C55 H55B 109.5 . . ?
 H55A C55 H55C 109.5 . . ?
 H55B C55 H55C 109.5 . . ?
 C53 C56 H56A 109.5 . . ?
 C53 C56 H56B 109.5 . . ?
 C53 C56 H56C 109.5 . . ?
 H56A C56 H56B 109.5 . . ?
 H56A C56 H56C 109.5 . . ?
 H56B C56 H56C 109.5 . . ?

loop_
  _geom_torsion_atom_site_label_1
  _geom_torsion_atom_site_label_2
  _geom_torsion_atom_site_label_3
  _geom_torsion_atom_site_label_4
  _geom_torsion
  _geom_torsion_site_symmetry_1
  _geom_torsion_site_symmetry_2
  _geom_torsion_site_symmetry_3
  _geom_torsion_site_symmetry_4
  _geom_torsion_publ_flag
 C1 C5 C6 C7 -179.7(11) . . . . ?
 C1 C5 C10 C9 -178.7(9) . . . . ?
 C2 C1 C5 C6 -43.5(15) . . . . ?
 C2 C1 C5 C10 139.3(11) . . . . ?
 C3 C1 C5 C6 77.1(15) . . . . ?
 C3 C1 C5 C10 -100.2(13) . . . . ?
 C4 C1 C5 C6 -159.1(12) . . . . ?
 C4 C1 C5 C10 23.7(16) . . . . ?
 C5 C6 C7 C8 0.9(18) . . . . ?
 C6 C5 C10 C9 3.9(14) . . . . ?
 C6 C7 C8 C9 -0.8(15) . . . . ?
 C6 C7 C8 C21 177.5(10) . . . . ?
 C7 C8 C9 C10 2.2(12) . . . . ?
 C7 C8 C9 C11 -171.6(8) . . . . ?
 C7 C8 C21 C22 -0.7(12) . . . . ?
 C7 C8 C21 C26 179.4(8) . . . . ?
 C8 C9 C10 C5 -4.0(13) . . . . ?
 C8 C9 C11 C12 -4.2(11) . . . . ?
 C8 C9 C11 C16 166.5(7) . . . . ?
 C8 C21 C22 C23 -178.7(7) . . . . ?
 C8 C21 C26 C12 -11.3(11) . . . . ?
 C8 C21 C26 C25 171.8(7) . . . . ?
 C9 C8 C21 C22 177.4(7) . . . . ?
 C9 C8 C21 C26 -2.5(11) . . . . ?
 C9 C11 C12 C13 166.7(8) . . . . ?
 C9 C11 C12 C26 -9.2(11) . . . . ?
 C9 C11 C16 C15 -170.7(8) . . . . ?
 C10 C5 C6 C7 -2.4(17) . . . . ?
 C10 C9 C11 C12 -178.0(7) . . . . ?
 C10 C9 C11 C16 -7.2(12) . . . . ?
 C11 C9 C10 C5 169.6(8) . . . . ?
 C11 C12 C13 C14 3.7(14) . . . . ?
 C11 C12 C26 C21 17.1(11) . . . . ?
 C11 C12 C26 C25 -166.1(7) . . . . ?
 C12 C11 C16 C15 0.0(12) . . . . ?
 C12 C13 C14 C15 0.3(16) . . . . ?
 C13 C12 C26 C21 -158.4(9) . . . . ?
 C13 C12 C26 C25 18.3(13) . . . . ?
 C13 C14 C15 C16 -4.1(15) . . . . ?
 C13 C14 C15 C17 178.9(10) . . . . ?
 C14 C15 C16 C11 3.9(13) . . . . ?
 C14 C15 C17 C18 55.0(12) . . . . ?
 C14 C15 C17 C19 -66.1(12) . . . . ?
 C14 C15 C17 C20 -176.0(10) . . . . ?
 C16 C11 C12 C13 -3.9(12) . . . . ?
 C16 C11 C12 C26 -179.8(7) . . . . ?
 C16 C15 C17 C18 -121.8(10) . . . . ?
 C16 C15 C17 C19 117.1(9) . . . . ?
 C16 C15 C17 C20 7.2(14) . . . . ?
 C17 C15 C16 C11 -179.1(8) . . . . ?
 C21 C8 C9 C10 -176.0(8) . . . . ?
 C21 C8 C9 C11 10.2(11) . . . . ?
 C21 C22 C23 C24 2.8(11) . . . . ?
 C21 C22 C23 C33 -179.9(7) . . . . ?
 C22 C21 C26 C12 168.8(7) . . . . ?
 C22 C21 C26 C25 -8.1(11) . . . . ?
 C22 C23 C24 C25 0.1(11) . . . . ?
 C22 C23 C24 C30 -179.9(7) . . . . ?
 C22 C23 C33 C32 -178.7(8) . . . . ?
 C23 C24 C25 C26 -7.2(12) . . . . ?
 C23 C24 C25 C27 169.0(7) . . . . ?
 C23 C24 C30 C29 175.5(7) . . . . ?
 C23 C24 C30 C31 -2.0(11) . . . . ?
 C24 C23 C33 C32 -1.4(12) . . . . ?
 C24 C25 C26 C12 -165.7(8) . . . . ?
 C24 C25 C26 C21 11.1(11) . . . . ?
 C24 C25 C27 C28 13.0(12) . . . . ?
 C24 C30 C31 C32 0.0(11) . . . . ?
 C24 C30 C31 C34 -177.4(8) . . . . ?
 C25 C24 C30 C29 -4.5(12) . . . . ?
 C25 C24 C30 C31 177.9(7) . . . . ?
 C25 C27 C28 C29 0.5(14) . . . . ?
 C26 C12 C13 C14 179.4(9) . . . . ?
 C26 C21 C22 C23 1.2(11) . . . . ?
 C26 C25 C27 C28 -171.0(8) . . . . ?
 C27 C25 C26 C12 18.5(13) . . . . ?
 C27 C25 C26 C21 -164.7(8) . . . . ?
 C27 C28 C29 C30 -16.4(12) . . . . ?
 C27 C28 C29 C36 172.3(8) . . . . ?
 C28 C29 C30 C24 18.1(11) . . . . ?
 C28 C29 C30 C31 -164.3(7) . . . . ?
 C28 C29 C36 C35 156.4(8) . . . . ?
 C28 C29 C36 C37 -29.7(12) . . . . ?
 C29 C30 C31 C32 -177.6(7) . . . . ?
 C29 C30 C31 C34 5.0(11) . . . . ?
 C29 C36 C37 C38 -13.6(11) . . . . ?
 C29 C36 C37 C46 167.8(7) . . . . ?
 C30 C24 C25 C26 172.8(8) . . . . ?
 C30 C24 C25 C27 -11.0(11) . . . . ?
 C30 C29 C36 C35 -14.7(11) . . . . ?
 C30 C29 C36 C37 159.2(7) . . . . ?
 C30 C31 C32 C33 1.3(12) . . . . ?
 C30 C31 C34 C35 -10.6(12) . . . . ?
 C31 C32 C33 C23 -0.6(13) . . . . ?
 C31 C34 C35 C36 3.3(12) . . . . ?
 C31 C34 C35 C48 -179.6(7) . . . . ?
 C32 C31 C34 C35 172.0(8) . . . . ?
 C33 C23 C24 C25 -177.2(7) . . . . ?
 C33 C23 C24 C30 2.7(11) . . . . ?
 C34 C31 C32 C33 178.7(8) . . . . ?
 C34 C35 C36 C29 9.4(11) . . . . ?
 C34 C35 C36 C37 -164.7(7) . . . . ?
 C34 C35 C48 C47 175.3(8) . . . . ?
 C34 C35 C48 C49 -7.4(11) . . . . ?
 C35 C36 C37 C38 160.3(7) . . . . ?
 C35 C36 C37 C46 -18.3(10) . . . . ?
 C35 C48 C49 C50 -178.8(8) . . . . ?
 C36 C29 C30 C24 -170.1(7) . . . . ?
 C36 C29 C30 C31 7.5(11) . . . . ?
 C36 C35 C48 C47 -7.6(10) . . . . ?
 C36 C35 C48 C49 169.7(7) . . . . ?
 C36 C37 C38 C39 177.2(8) . . . . ?
 C36 C37 C46 C45 -176.0(7) . . . . ?
 C36 C37 C46 C47 7.7(10) . . . . ?
 C37 C38 C39 C40 -0.7(14) . . . . ?
 C37 C46 C47 C48 3.0(11) . . . . ?
 C37 C46 C47 C52 -179.8(7) . . . . ?
 C38 C37 C46 C45 5.3(10) . . . . ?
 C38 C37 C46 C47 -171.0(7) . . . . ?
 C38 C39 C40 C41 -174.0(9) . . . . ?
 C38 C39 C40 C45 3.9(13) . . . . ?
 C39 C40 C41 C42 -163.7(9) . . . . ?
 C39 C40 C41 C43 -51.1(14) . . . . ?
 C39 C40 C41 C44 76.1(13) . . . . ?
 C39 C40 C45 C46 -2.5(12) . . . . ?
 C40 C45 C46 C37 -2.1(12) . . . . ?
 C40 C45 C46 C47 174.0(8) . . . . ?
 C41 C40 C45 C46 175.3(8) . . . . ?
 C45 C40 C41 C42 18.6(13) . . . . ?
 C45 C40 C41 C43 131.2(12) . . . . ?
 C45 C40 C41 C44 -101.6(14) . . . . ?
 C45 C46 C47 C48 -173.1(7) . . . . ?
 C45 C46 C47 C52 4.1(11) . . . . ?
 C46 C37 C38 C39 -4.2(12) . . . . ?
 C46 C47 C48 C35 -3.3(11) . . . . ?
 C46 C47 C48 C49 179.4(7) . . . . ?
 C46 C47 C52 C51 -178.6(8) . . . . ?
 C47 C48 C49 C50 -1.5(13) . . . . ?
 C48 C35 C36 C29 -167.7(7) . . . . ?
 C48 C35 C36 C37 18.1(10) . . . . ?
 C48 C47 C52 C51 -1.3(12) . . . . ?
 C48 C49 C50 C51 0.0(14) . . . . ?
 C49 C50 C51 C52 0.8(13) . . . . ?
 C49 C50 C51 C53 -176.7(8) . . . . ?
 C50 C51 C52 C47 -0.2(12) . . . . ?
 C50 C51 C53 C54 -57.2(11) . . . . ?
 C50 C51 C53 C55 66.2(11) . . . . ?
 C50 C51 C53 C56 -176.0(9) . . . . ?
 C52 C47 C48 C35 179.5(7) . . . . ?
 C52 C47 C48 C49 2.1(11) . . . . ?
 C52 C51 C53 C54 125.4(9) . . . . ?
 C52 C51 C53 C55 -111.2(10) . . . . ?
 C52 C51 C53 C56 6.5(12) . . . . ?
 C53 C51 C52 C47 177.3(7) . . . . ?

_shelx_res_file
;
    20200115-1.res created by SHELXL-2014/7

TITL 20200115-1_a.res in Pca2(1)
REM Old TITL 20200115-1_a.res in Pca2(1)
REM SHELXT solution in Pca2(1)
REM R1 0.209, Rweak 0.068, Alpha 0.018, Orientation as input
REM Flack x = -9.990 ( 9.990 ) from Parsons' quotients
REM Formula found by SHELXT: C56
CELL 1.54184 28.3135 18.0423 8.0929 90 90 90
ZERR 4 0.0022 0.0009 0.0004 0 0 0
LATT -1
SYMM -X,-Y,0.5+Z
SYMM 0.5+X,-Y,+Z
SYMM 0.5-X,+Y,0.5+Z
SFAC C H
UNIT 224 216

L.S. 50 0 0
PLAN  6
CONF
BOND $H
list 4
fmap 2 53
MORE -1
ACTA
OMIT 0 1 0
OMIT 2 17 0
OMIT 5 1 1
OMIT -8 -1 -1
OMIT 6 3 0
OMIT 6 1 1
OMIT 1 1 1
OMIT -7 -1 -1
OMIT 7 1 1
OMIT 0 0 2
OMIT 8 1 1
OMIT 5 1 0
REM <olex2.extras>
REM <HklSrc "%.\\20200115-1.hkl">
REM </olex2.extras>

WGHT    0.200000
FVAR       0.24979
C1    1   -0.338430   -0.052817   -1.231628    11.00000    0.07125    0.04307 =
         0.05325    0.01584   -0.00520   -0.00037
C2    1   -0.350768    0.023076   -1.150206    11.00000    0.14659    0.04515 =
         0.07773    0.01114   -0.00206    0.03393
AFIX 137
H2A   2   -0.329931    0.031862   -1.058701    11.00000   -1.50000
H2B   2   -0.382827    0.022114   -1.111650    11.00000   -1.50000
H2C   2   -0.347142    0.061977   -1.230136    11.00000   -1.50000
AFIX   0
C3    1   -0.291383   -0.047680   -1.312507    11.00000    0.12167    0.08161 =
         0.07443    0.03619    0.04186    0.02304
AFIX 137
H3A   2   -0.282141   -0.095758   -1.351715    11.00000   -1.50000
H3B   2   -0.268535   -0.030097   -1.234116    11.00000   -1.50000
H3C   2   -0.293102   -0.013869   -1.403903    11.00000   -1.50000
AFIX   0
C4    1   -0.376840   -0.064257   -1.361232    11.00000    0.13924    0.05905 =
         0.08011    0.02773   -0.04664   -0.03174
AFIX 137
H4A   2   -0.407272   -0.056944   -1.311536    11.00000   -1.50000
H4B   2   -0.374824   -0.113729   -1.404327    11.00000   -1.50000
H4C   2   -0.372603   -0.029299   -1.449424    11.00000   -1.50000
AFIX   0
C5    1   -0.338514   -0.112822   -1.100219    11.00000    0.05947    0.03245 =
         0.05437    0.00383   -0.01085   -0.00824
C6    1   -0.318040   -0.103052   -0.945599    11.00000    0.07503    0.04428 =
         0.04820    0.01450   -0.01424   -0.01924
AFIX  43
H6    2   -0.303802   -0.057910   -0.921183    11.00000   -1.20000
AFIX   0
C7    1   -0.318127   -0.158267   -0.826678    11.00000    0.08821    0.03057 =
         0.04910    0.00306   -0.02499   -0.01957
AFIX  43
H7    2   -0.304433   -0.149177   -0.724210    11.00000   -1.20000
AFIX   0
C8    1   -0.338770   -0.228468   -0.858682    11.00000    0.04776    0.02366 =
         0.03957    0.00417    0.00599   -0.00213
C9    1   -0.359236   -0.237973   -1.014531    11.00000    0.05341    0.02843 =
         0.02762   -0.00265    0.00566    0.00019
C10   1   -0.357474   -0.181698   -1.131667    11.00000    0.05683    0.03043 =
         0.03700    0.00544    0.00750   -0.00596
AFIX  43
H10   2   -0.369684   -0.190998   -1.236313    11.00000   -1.20000
AFIX   0
C11   1   -0.387459   -0.307541   -1.045002    11.00000    0.06219    0.02269 =
         0.02840   -0.00033    0.00354   -0.00129
C12   1   -0.390136   -0.363578   -0.921749    11.00000    0.05651    0.03031 =
         0.02779    0.00846   -0.00009   -0.00131
C13   1   -0.423816   -0.416598   -0.944140    11.00000    0.07530    0.03009 =
         0.03863    0.01341   -0.01727   -0.01363
AFIX  43
H13   2   -0.427869   -0.452507   -0.862928    11.00000   -1.20000
AFIX   0
C14   1   -0.452435   -0.419013   -1.084315    11.00000    0.08957    0.03899 =
         0.04075    0.00033   -0.01465   -0.01495
AFIX  43
H14   2   -0.474958   -0.456343   -1.092730    11.00000   -1.20000
AFIX   0
C15   1   -0.448586   -0.367562   -1.212513    11.00000    0.07097    0.03023 =
         0.03296    0.00406   -0.00761   -0.00036
C16   1   -0.416304   -0.310511   -1.186152    11.00000    0.06002    0.03089 =
         0.02405   -0.00007   -0.00159   -0.00188
AFIX  43
H16   2   -0.413754   -0.273093   -1.264683    11.00000   -1.20000
AFIX   0
C17   1   -0.479077   -0.370852   -1.366489    11.00000    0.07688    0.03033 =
         0.03822    0.00921   -0.02227   -0.01131
C18   1   -0.530729   -0.371602   -1.327042    11.00000    0.10538    0.07881 =
         0.03751    0.01635   -0.01689   -0.01546
AFIX 137
H18A  2   -0.538615   -0.328283   -1.263930    11.00000   -1.50000
H18B  2   -0.538108   -0.415168   -1.264022    11.00000   -1.50000
H18C  2   -0.548587   -0.371837   -1.427874    11.00000   -1.50000
AFIX   0
C19   1   -0.463766   -0.445048   -1.459650    11.00000    0.08995    0.06060 =
         0.03927   -0.01178   -0.01711    0.00123
AFIX 137
H19A  2   -0.474651   -0.487244   -1.398241    11.00000   -1.50000
H19B  2   -0.429974   -0.446767   -1.468585    11.00000   -1.50000
H19C  2   -0.477464   -0.445750   -1.568150    11.00000   -1.50000
AFIX   0
C20   1   -0.466097   -0.312056   -1.494152    11.00000    0.12286    0.05498 =
         0.05219    0.02161   -0.03483   -0.01285
AFIX 137
H20A  2   -0.434722   -0.321143   -1.534299    11.00000   -1.50000
H20B  2   -0.467395   -0.263897   -1.443918    11.00000   -1.50000
H20C  2   -0.488007   -0.314131   -1.584563    11.00000   -1.50000
AFIX   0
C21   1   -0.337271   -0.289073   -0.734017    11.00000    0.04369    0.02531 =
         0.03192   -0.00019    0.00075    0.00206
C22   1   -0.315451   -0.280423   -0.582999    11.00000    0.04313    0.02709 =
         0.03448   -0.00408    0.00725   -0.00561
AFIX  43
H22   2   -0.301880   -0.234796   -0.558418    11.00000   -1.20000
AFIX   0
C23   1   -0.312746   -0.335949   -0.466759    11.00000    0.03824    0.02905 =
         0.02421   -0.00360    0.00355   -0.00264
C24   1   -0.331810   -0.407935   -0.506986    11.00000    0.05125    0.02881 =
         0.02532    0.01180   -0.00071   -0.00758
C25   1   -0.352708   -0.418714   -0.666728    11.00000    0.05408    0.02706 =
         0.02691   -0.00273   -0.00325    0.00052
C26   1   -0.359418   -0.358541   -0.774649    11.00000    0.05683    0.02449 =
         0.02276   -0.00047    0.00241    0.00148
C27   1   -0.362485   -0.494564   -0.705873    11.00000    0.06478    0.02513 =
         0.02413    0.00191   -0.00010   -0.00193
AFIX  43
H27   2   -0.369857   -0.506671   -0.814556    11.00000   -1.20000
AFIX   0
C28   1   -0.361476   -0.550217   -0.590350    11.00000    0.06014    0.02771 =
         0.02327    0.00516   -0.00044   -0.00031
AFIX  43
H28   2   -0.367878   -0.598664   -0.622573    11.00000   -1.20000
AFIX   0
C29   1   -0.350700   -0.534784   -0.420774    11.00000    0.05358    0.02748 =
         0.02521   -0.00098   -0.00421    0.00688
C30   1   -0.329309   -0.465746   -0.387866    11.00000    0.04565    0.02623 =
         0.02312    0.00539    0.00210   -0.00063
C31   1   -0.306905   -0.453476   -0.232895    11.00000    0.04857    0.03094 =
         0.02118   -0.00125   -0.00214   -0.00552
C32   1   -0.286815   -0.381113   -0.199380    11.00000    0.05071    0.03199 =
         0.03657   -0.00544   -0.01489   -0.00145
AFIX  43
H32   2   -0.271488   -0.372668   -0.099503    11.00000   -1.20000
AFIX   0
C33   1   -0.290046   -0.326004   -0.310820    11.00000    0.05149    0.02944 =
         0.02678    0.00083   -0.00478   -0.00809
AFIX  43
H33   2   -0.277092   -0.280020   -0.285480    11.00000   -1.20000
AFIX   0
C34   1   -0.303334   -0.511519   -0.122197    11.00000    0.04810    0.04775 =
         0.02928    0.00218   -0.00034   -0.00713
AFIX  43
H34   2   -0.284239   -0.505927   -0.029529    11.00000   -1.20000
AFIX   0
C35   1   -0.327447   -0.578336   -0.144792    11.00000    0.04555    0.03288 =
         0.02546    0.00222    0.00162   -0.00270
C36   1   -0.354483   -0.588581   -0.289224    11.00000    0.04053    0.02586 =
         0.02562    0.00533    0.00222    0.00508
C37   1   -0.389169   -0.650315   -0.293126    11.00000    0.05648    0.03003 =
         0.01886    0.00309   -0.00341    0.00292
C38   1   -0.427035   -0.652941   -0.404746    11.00000    0.05230    0.03082 =
         0.03364    0.00431   -0.00909    0.00065
AFIX  43
H38   2   -0.431438   -0.613279   -0.476507    11.00000   -1.20000
AFIX   0
C39   1   -0.457922   -0.711642   -0.412604    11.00000    0.06476    0.03207 =
         0.03677    0.00501   -0.01813    0.00247
AFIX  43
H39   2   -0.482677   -0.710479   -0.488087    11.00000   -1.20000
AFIX   0
C40   1   -0.452617   -0.773810   -0.307580    11.00000    0.05889    0.03022 =
         0.03363    0.00533   -0.00078   -0.00577
C41   1   -0.484859   -0.839788   -0.334169    11.00000    0.05338    0.02928 =
         0.06557    0.00880   -0.01604   -0.00515
C42   1   -0.482000   -0.888594   -0.174945    11.00000    0.08437    0.05258 =
         0.09723    0.04465   -0.04448   -0.02142
AFIX 137
H42A  2   -0.490811   -0.859436   -0.080630    11.00000   -1.50000
H42B  2   -0.450293   -0.906391   -0.161073    11.00000   -1.50000
H42C  2   -0.503138   -0.929935   -0.185326    11.00000   -1.50000
AFIX   0
C43   1   -0.535492   -0.818228   -0.340813    11.00000    0.07572    0.05085 =
         0.13685    0.02309   -0.03700   -0.01313
AFIX 137
H43A  2   -0.540967   -0.788064   -0.436636    11.00000   -1.50000
H43B  2   -0.543499   -0.790717   -0.243219    11.00000   -1.50000
H43C  2   -0.554710   -0.861980   -0.346875    11.00000   -1.50000
AFIX   0
C44   1   -0.469709   -0.882639   -0.479261    11.00000    0.14563    0.08648 =
         0.11495   -0.05008    0.02406   -0.02567
AFIX 137
H44A  2   -0.454765   -0.927643   -0.443598    11.00000   -1.50000
H44B  2   -0.447749   -0.853864   -0.542931    11.00000   -1.50000
H44C  2   -0.496716   -0.894398   -0.546016    11.00000   -1.50000
AFIX   0
C45   1   -0.416835   -0.769164   -0.192189    11.00000    0.04250    0.03352 =
         0.03407    0.01315   -0.00129    0.00249
AFIX  43
H45   2   -0.413518   -0.808555   -0.118983    11.00000   -1.20000
AFIX   0
C46   1   -0.384688   -0.709237   -0.176034    11.00000    0.05247    0.02376 =
         0.02161   -0.00184    0.00076    0.00512
C47   1   -0.350604   -0.703452   -0.044068    11.00000    0.04566    0.03842 =
         0.02580    0.01002   -0.00187    0.00612
C48   1   -0.323331   -0.639754   -0.023830    11.00000    0.03514    0.03115 =
         0.03028   -0.00011    0.00195   -0.00014
C49   1   -0.291347   -0.636304    0.105635    11.00000    0.05754    0.04600 =
         0.02935    0.00725   -0.01012   -0.00878
AFIX  43
H49   2   -0.272517   -0.594450    0.118246    11.00000   -1.20000
AFIX   0
C50   1   -0.287095   -0.694380    0.216341    11.00000    0.06428    0.04676 =
         0.01734    0.00221    0.00105   -0.00297
AFIX  43
H50   2   -0.265389   -0.690808    0.302221    11.00000   -1.20000
AFIX   0
C51   1   -0.314571   -0.757999    0.202024    11.00000    0.05107    0.03386 =
         0.02861    0.00126    0.00381   -0.00380
C52   1   -0.345497   -0.761990    0.074122    11.00000    0.04963    0.03064 =
         0.03131    0.00137   -0.00589    0.00638
AFIX  43
H52   2   -0.364029   -0.804247    0.062853    11.00000   -1.20000
AFIX   0
C53   1   -0.310113   -0.819560    0.335793    11.00000    0.06143    0.04841 =
         0.02728    0.01352    0.00740    0.00643
C54   1   -0.259653   -0.845781    0.348103    11.00000    0.09565    0.06917 =
         0.02327    0.01799    0.01005    0.02156
AFIX 137
H54A  2   -0.258219   -0.889014    0.417068    11.00000   -1.50000
H54B  2   -0.240533   -0.807261    0.395242    11.00000   -1.50000
H54C  2   -0.248091   -0.857757    0.239834    11.00000   -1.50000
AFIX   0
C55   1   -0.328402   -0.788751    0.497602    11.00000    0.06971    0.06961 =
         0.02743    0.00650    0.00945    0.01380
AFIX 137
H55A  2   -0.331902   -0.828330    0.575930    11.00000   -1.50000
H55B  2   -0.358464   -0.765487    0.479709    11.00000   -1.50000
H55C  2   -0.306439   -0.752899    0.539773    11.00000   -1.50000
AFIX   0
C56   1   -0.340200   -0.886441    0.292410    11.00000    0.11312    0.04463 =
         0.05182    0.02715   -0.01452   -0.00030
AFIX 137
H56A  2   -0.371295   -0.870303    0.261724    11.00000   -1.50000
H56B  2   -0.342261   -0.918740    0.386401    11.00000   -1.50000
H56C  2   -0.326067   -0.912571    0.201673    11.00000   -1.50000
AFIX   0
HKLF 4

REM  20200115-1_a.res in Pca2(1)
REM R1 =  0.1389 for    5747 Fo > 4sig(Fo)  and  0.1530 for all    6876 data
REM    517 parameters refined using      1 restraints

END

WGHT      0.2000      0.0000

REM Highest difference peak  0.637,  deepest hole -0.388,  1-sigma level  0.124
Q1    1  -0.3974 -0.2168 -1.1857  11.00000  0.05    0.64
Q2    1  -0.2995  0.0136 -1.1655  11.00000  0.05    0.63
Q3    1  -0.4560 -0.2805 -1.3217  11.00000  0.05    0.62
Q4    1  -0.2442 -0.3749 -0.1534  11.00000  0.05    0.62
Q5    1  -0.3397 -0.2978 -0.5122  11.00000  0.05    0.60
Q6    1  -0.4390 -0.1574 -1.4032  11.00000  0.05    0.60
;
_shelx_res_checksum                18959
_shelx_hkl_file
;
   0   0   1    3.69    0.59
   0   0   1    3.87    1.14
   0   0   2  625.23   29.81
   0   0   2  638.24   29.99
   0   0   3    2.49    1.62
   0   0   3    2.01    1.15
   0   0   3    1.34    2.11
   0   0   4  132.86    6.96
   0   0   4  126.19    7.06
   0   0   5    2.98    2.22
   0   0   5    0.97    2.35
   0   0   6   24.27    2.11
   0   0   6   24.97    1.94
   0   0   6   30.98    2.01
   0   0   6   25.58    3.14
   0   0   6   25.27    3.24
   0   0   7    0.71    2.59
   0   0   7    1.42    1.73
   0   0   7    1.16    2.69
   0   0   8   64.10    3.74
   0   0   9   -1.10    1.21
   0   1   0 2178.56  102.63
   0   1   1    1.94    0.96
   0  -1   2   83.71    5.12
   0  -1   2   98.03    4.71
   0   1   3    3.26    1.67
   0  -1   3    2.73    1.86
   0  -1   3    1.38    2.15
   0  -1   3    1.61    1.13
   0   1   3    0.07    2.03
   0  -1   4   23.20    2.41
   0   1   4   21.67    2.34
   0   1   4   11.09    2.42
   0  -1   4   11.63    2.57
   0  -1   4   12.22    1.52
   0   1   5    2.37    2.05
   0  -1   5    3.06    2.34
   0  -1   5    0.33    2.45
   0   1   5    1.72    2.39
   0  -1   6   27.80    2.37
   0   1   6   30.97    2.32
   0   1   6   28.49    2.10
   0   1   6   30.53    2.11
   0  -1   6   29.46    2.12
   0   1   6   33.57    3.39
   0  -1   6   31.55    3.52
   0  -1   6   32.48    3.32
   0   1   6   28.98    3.20
   0  -1   7   13.09    1.98
   0   1   7    8.34    1.83
   0   1   7    3.94    1.37
   0  -1   7    5.82    3.03
   0   1   7    3.44    2.53
   0  -1   7    6.96    2.87
   0   1   8   16.34    1.92
   0  -1   8   20.53    2.06
   0  -1   9    0.96    1.24
   0   1   9    0.73    1.17
   0   2   0 1607.93   75.80
   0   2   1    4.73    1.09
   0   2   2  191.40    9.42
   0  -2   3    1.66    1.09
   0  -2   3    3.00    2.19
   0   2   3    3.03    1.61
   0  -2   3    1.85    1.76
   0  -2   4  326.87   16.27
   0  -2   4  344.77   16.71
   0  -2   4  349.35   16.68
   0   2   4  338.91   16.50
   0  -2   5   -0.98    2.58
   0  -2   5    0.07    1.13
   0   2   5    1.50    1.96
   0  -2   5    5.23    2.35
   0  -2   6   79.47    4.57
   0   2   6   77.92    4.45
   0  -2   6   92.85    4.42
   0   2   6   80.83    4.36
   0  -2   6   81.97    5.54
   0   2   6   83.12    5.25
   0  -2   6   88.49    5.54
   0  -2   7    2.56    2.87
   0   2   7    4.23    2.29
   0  -2   7    5.81    1.78
   0   2   7    1.33    1.66
   0  -2   7    2.49    2.99
   0   2   7    1.84    1.33
   0  -2   8   43.79    3.03
   0   2   8   48.45    2.87
   0   2   8   45.88    2.64
   0  -2   9   -0.45    1.29
   0   3   0  274.80   13.14
   0   3   1    7.77    1.42
   0   3   2  282.07   13.13
   0   3   2  257.81   13.23
   0   3   3    1.48    1.55
   0  -3   4  199.00   10.81
   0  -3   4  272.60   10.94
   0   3   4  259.53   10.64
   0  -3   5    0.87    1.19
   0  -3   5    1.69    2.62
   0   3   5    2.56    1.87
   0  -3   5    3.90    2.55
   0   3   6   23.56    1.94
   0   3   6   27.41    2.08
   0  -3   6   30.39    2.43
   0  -3   6   27.28    3.57
   0   3   6   26.52    2.84
   0  -3   6   27.59    3.32
   0   3   7   15.33    1.74
   0  -3   7   25.01    2.30
   0   3   7   27.22    2.14
   0  -3   7   12.79    3.45
   0   3   7   15.71    2.62
   0  -3   7   15.06    3.29
   0  -3   8   46.17    2.81
   0   3   8   43.43    2.58
   0  -3   9    0.23    1.30
   0   4   0 1075.97   50.86
   0   4   1    2.86    1.48
   0   4  -1    2.53    1.32
   0   4   2   95.80    4.87
   0   4   2   94.00    5.07
   0   4   3    9.32    1.61
   0   4   3   11.28    2.00
   0  -4   4    4.84    2.32
   0   4   4    8.11    1.71
   0  -4   4    6.13    1.30
   0  -4   4    6.64    2.55
   0   4   5    1.73    1.06
   0  -4   5    2.43    1.29
   0  -4   5    2.37    2.77
   0   4   5    3.44    1.69
   0  -4   5    3.27    2.39
   0  -4   5    1.12    1.64
   0   4   5    2.45    1.23
   0   4   6   11.17    1.48
   0  -4   6   10.61    3.13
   0   4   6   12.08    2.21
   0  -4   6   14.19    3.05
   0  -4   6   12.41    1.99
   0   4   6    9.97    1.57
   0   4   7    2.31    1.36
   0  -4   7    4.25    3.23
   0  -4   7    5.92    2.01
   0   4   7    2.07    1.47
   0  -4   7    5.25    2.95
   0   4   8    5.81    1.18
   0  -4   8    4.91    1.78
   0   4   8    1.90    1.36
   0  -4   9    0.51    1.30
   0   5   0   11.18    1.57
   0   5  -1    2.57    1.37
   0   5   1    2.38    1.44
   0   5   1    4.48    1.05
   0   5   2   60.63    3.60
   0   5   2   56.44    3.27
   0   5   3   22.97    2.03
   0   5   3   25.22    2.53
   0   5   3   24.98    1.91
   0  -5   4   24.11    2.13
   0  -5   4   29.76    3.33
   0  -5   5    3.71    2.87
   0  -5   5    1.69    1.30
   0  -5   5    7.33    1.80
   0   5   5    7.31    1.27
   0   5   5    4.20    1.26
   0  -5   5    6.68    2.77
   0   5   5    3.90    1.75
   0   5   6   93.37    5.54
   0  -5   6  103.18    6.82
   0   5   6   92.05    6.11
   0  -5   6   99.60    6.89
   0  -5   6  135.88    6.01
   0   5   6  127.17    5.65
   0  -5   7    1.94    3.16
   0   5   7    2.84    1.37
   0   5   7    2.16    1.48
   0  -5   7    6.04    2.10
   0  -5   7    3.06    2.91
   0   5   7    2.04    1.99
   0   5   8   15.66    1.50
   0  -5   8   23.44    2.15
   0  -5   9    0.86    1.29
   0   6   0    1.18    1.34
   0   6   1    2.27    1.07
   0   6   1    4.90    1.56
   0   6  -1    3.14    1.34
   0   6   2  103.51    5.39
   0   6  -2  104.02    5.49
   0   6   2  109.78    5.68
   0   6   3    8.77    1.51
   0   6   3    7.51    1.49
   0  -6   4   43.35    3.73
   0   6   4   35.92    2.66
   0   6   5    6.53    1.22
   0   6   5    6.05    1.23
   0  -6   5    4.52    2.86
   0   6   5    8.55    1.82
   0   6   5    6.78    1.30
   0  -6   5    6.01    1.42
   0  -6   5    9.27    3.07
   0  -6   6   13.43    2.34
   0   6   6    9.53    1.49
   0   6   6   14.81    2.25
   0   6   6   14.50    1.59
   0   6   6   12.41    1.38
   0  -6   6   13.67    3.60
   0  -6   7    1.95    2.03
   0   6   7    1.08    1.31
   0  -6   7    4.21    3.02
   0   6   7   -0.84    1.84
   0  -6   7    4.39    3.15
   0  -6   8    8.96    1.76
   0   6   8    4.07    1.16
   0  -6   9   -0.68    1.26
   0   6   9    2.41    0.69
   0   7   0   10.81    1.63
   0   7   1    5.50    1.10
   0   7   1    4.39    1.65
   0   7  -1    2.28    1.33
   0   7   2  657.15   31.42
   0   7  -2  658.01   31.62
   0   7   2  659.96   31.56
   0   7   2  682.40   31.75
   0   7   3   24.32    2.55
   0   7   3   20.09    1.83
   0   7   4    9.13    1.64
   0   7   4   11.65    2.61
   0   7   5   -0.15    1.15
   0   7   5    2.20    1.73
   0  -7   5   -1.72    2.83
   0   7   5    1.34    1.23
   0  -7   5   -0.81    2.86
   0  -7   5    0.25    1.35
   0  -7   6   11.84    2.44
   0   7   6   15.12    2.20
   0  -7   6   16.14    3.59
   0   7   6   14.38    1.62
   0   7   6   14.88    1.50
   0  -7   6   12.79    3.71
   0   7   7    1.07    1.80
   0  -7   7    5.17    3.07
   0  -7   7    2.33    3.13
   0  -7   7    6.32    2.15
   0   7   7    2.29    1.31
   0  -7   8    8.67    1.82
   0   7   8    7.40    1.15
   0  -7   9    0.62    1.20
   0   8   0    9.60    1.58
   0   8   0    9.07    1.12
   0   8  -1    2.18    1.41
   0   8   1    1.75    1.72
   0   8   2   69.25    4.16
   0   8  -2   69.09    3.95
   0   8   2   67.11    3.81
   0   8   3    7.64    1.44
   0   8   3    6.75    1.64
   0   8   3   10.84    2.43
   0   8  -3    6.63    1.70
   0   8   4   25.92    1.81
   0   8   4   25.58    3.12
   0   8   4   24.94    2.17
   0   8  -4   27.82    2.56
   0   8   5    0.92    1.22
   0  -8   5    1.43    2.83
   0   8   5    0.66    1.59
   0  -8   5    1.77    3.04
   0  -8   5    2.26    1.49
   0   8   5    0.43    1.21
   0   8   6   15.97    1.61
   0  -8   6   12.80    2.43
   0   8   6    9.76    2.06
   0  -8   6   17.57    3.60
   0   8   6   15.77    1.61
   0   8  -6   15.89    2.46
   0  -8   6   16.46    3.70
   0  -8   7    3.46    2.06
   0   8   7    0.45    1.22
   0  -8   8    0.93    1.63
   0   8   8    0.58    1.04
   0  -8   9    0.69    1.09
   0   9   0   23.33    1.63
   0   9   0   25.44    2.09
   0   9  -1    1.48    1.51
   0   9   1    3.94    1.78
   0   9   2  135.94    7.43
   0   9   2  157.55    7.86
   0   9  -2  156.00    7.60
   0   9   3    3.40    1.44
   0   9  -3    5.48    1.71
   0   9   3    5.98    2.41
   0   9   3    4.78    1.63
   0   9   4   43.83    2.50
   0   9   4   38.46    2.88
   0   9   4   43.19    3.72
   0   9  -4   40.55    3.12
   0   9   5    6.36    1.35
   0  -9   5    2.21    1.54
   0  -9   5    8.02    3.24
   0   9   5    6.33    1.48
   0   9  -5    6.38    2.06
   0   9   5    6.35    1.73
   0  -9   5    5.65    3.15
   0  -9   6   26.16    3.92
   0   9   6   21.23    2.35
   0   9   6   24.15    1.91
   0   9   6   23.66    1.93
   0  -9   6   21.63    2.77
   0   9  -6   22.99    2.70
   0  -9   6   25.24    3.82
   0  -9   7    2.12    2.08
   0   9   7    1.26    1.19
   0  -9   8    6.92    1.68
   0   9   8    3.81    1.01
   0  -9   9    0.35    1.02
   0  10   0    3.54    1.64
   0  10   0    4.24    1.09
   0  10  -1    0.28    1.57
   0  10   1    0.46    1.71
   0  10  -1    1.23    1.04
   0  10   2  503.60   24.39
   0  10  -2  498.84   24.21
   0  10   3    5.96    2.42
   0  10  -3    1.09    1.65
   0  10   3    0.35    1.28
   0  10   3    1.68    1.66
   0  10   3    2.11    1.32
   0  10   4   27.91    2.40
   0  10   4   34.45    3.42
   0  10  -4   30.13    2.72
   0  10   5    4.10    1.35
   0 -10   5    6.76    3.28
   0 -10   5    4.94    1.76
   0  10   5   -0.18    1.42
   0  10   5    4.01    1.66
   0  10  -5    4.41    2.04
   0  10  -6   18.09    2.49
   0  10   6   16.96    1.58
   0  10   6   18.69    2.14
   0  10   6   17.72    1.71
   0  10   6   18.58    1.69
   0 -10   6   12.72    2.61
   0 -10   6   20.74    3.77
   0 -10   6   16.32    3.50
   0 -10   7    0.15    2.12
   0  10   7    1.80    1.17
   0 -10   8    5.09    1.57
   0  10   8    2.27    0.95
   0  10  -9    2.35    0.66
   0 -10   9    3.30    0.88
   0  11   0    3.32    1.14
   0  11   0    1.76    1.60
   0  11  -1    6.08    1.09
   0  11  -1    5.70    1.69
   0  11   1    5.84    1.84
   0  11  -2   24.37    2.42
   0  11   2   27.32    2.02
   0  11   2   27.27    2.80
   0  11   3    4.19    1.37
   0  11  -3    5.81    1.76
   0  11   3    7.07    2.49
   0  11   3    4.02    1.50
   0  11   3    5.34    1.75
   0  11   3    4.28    1.19
   0  11   3    3.49    1.27
   0  11  -4   82.37    4.90
   0  11   4   94.25    4.78
   0  11   4   86.63    5.57
   0  11   4   75.06    4.58
   0  11   4   76.66    4.21
   0 -11   5    7.66    3.26
   0  11   5    5.63    1.70
   0  11   5    9.48    1.47
   0  11   5    7.56    1.40
   0  11  -5    7.37    2.08
   0  11   5    4.98    1.56
   0  11   6   97.02    4.92
   0 -11   6  105.98    5.47
   0  11   6   97.56    4.79
   0 -11   6  100.37    6.72
   0  11   6   86.75    4.71
   0  11   7    0.98    1.11
   0 -11   7    5.38    2.02
   0 -11   8    7.47    1.52
   0  12   0   40.23    3.11
   0  12   0   41.63    2.50
   0  12  -1   -0.21    1.71
   0  12   1   -0.84    1.94
   0  12  -1    0.17    1.14
   0  12   1    0.64    1.26
   0  12   2    3.03    1.53
   0  12  -2    2.34    1.16
   0  12   2    2.49    1.30
   0  12   2    3.42    1.09
   0  12  -2    3.00    1.77
   0  12   2    2.92    2.20
   0  12  -2    3.80    1.02
   0  12   2    2.73    1.31
   0  12   3    0.32    1.71
   0  12   3    0.19    1.28
   0  12   3    0.88    1.19
   0  12  -3    0.98    1.82
   0  12   3    4.58    2.42
   0  12   3    0.06    1.39
   0 -12   4    8.75    3.09
   0  12   4    8.42    2.22
   0  12  -4   14.08    2.23
   0  12   4   10.72    3.12
   0  12   4   10.07    1.47
   0  12   5    6.70    1.67
   0  12  -5    7.26    2.04
   0  12   5    6.24    1.49
   0  12   5    6.93    1.41
   0  12   5    6.52    1.39
   0  12   6  134.67    6.57
   0  12   6  120.66    6.48
   0  12   6  135.46    6.69
   0  12   7    2.13    1.04
   0 -12   7    2.16    1.92
   0 -12   8    8.50    1.35
   0  13   0    3.71    1.97
   0  13   0    3.06    1.19
   0  13   0    1.94    1.25
   0  13  -1    5.89    1.82
   0  13   1    6.83    2.16
   0  13   1    6.44    1.30
   0  13  -1    4.91    1.16
   0  13  -1    4.31    1.29
   0  13  -2   94.26    5.46
   0  13   2  107.04    5.19
   0  13  -2   93.06    4.88
   0  13   2   80.44    4.93
   0  13   2   99.06    5.89
   0  13  -2  103.21    4.94
   0  13   2   92.01    4.90
   0  13   3    0.85    1.34
   0  13   3    0.14    1.36
   0  13   3    0.52    1.20
   0  13   3    3.53    2.80
   0  13  -3    0.13    1.82
   0  13  -3    0.62    1.17
   0  13   3    0.88    1.50
   0  13   3    2.14    1.91
   0  13  -3   -0.64    1.34
   0  13  -4    7.08    2.08
   0  13   4    9.51    2.99
   0  13   4    6.98    1.45
   0  13   4    9.33    1.58
   0  13  -5    6.29    2.05
   0  13   5   10.20    1.56
   0  13   5   10.73    1.48
   0  13   6   62.68    3.31
   0  13   6   55.48    3.23
   0  13   6   59.53    3.38
   0  13  -7    1.46    1.03
   0 -13   7    4.30    1.76
   0 -13   8    4.12    1.10
   0  14   0   18.44    2.49
   0  14   0   17.55    1.68
   0  14   1    7.82    2.42
   0  14  -1    6.30    1.94
   0  14   1    6.22    1.41
   0  14  -1    5.08    1.23
   0  14  -1    5.80    1.36
   0  14   1    4.66    1.33
   0  14   2    5.59    1.57
   0  14   2    0.74    1.37
   0  14  -2    3.12    1.20
   0  14   2    3.35    1.50
   0  14  -2    3.94    1.90
   0  14   2    2.31    2.46
   0  14  -2    5.57    1.20
   0  14   2    4.72    1.79
   0  14  -2    3.97    1.31
   0  14   3   -0.38    1.35
   0  14   3    0.99    1.44
   0  14  -3   -0.42    1.92
   0  14   3    2.93    2.66
   0  14  -3   -1.10    1.19
   0  14  -3    0.06    1.37
   0  14   3   -1.00    1.90
   0  14   4    2.41    1.39
   0  14   4    2.45    1.40
   0  14  -4    1.87    1.23
   0  14  -4    0.11    1.28
   0  14  -4    1.46    1.90
   0  14   4   -0.61    2.74
   0  14   5    0.25    1.26
   0  14  -5    1.08    1.17
   0  14  -5    0.13    1.26
   0 -14   6    6.00    2.16
   0  14  -6    7.94    1.25
   0  14  -6    7.11    1.21
   0  14   6    7.22    1.18
   0  14  -7    1.93    0.93
   0 -14   7    6.28    1.62
   0  14  -8    0.62    0.49
   0 -14   8    2.85    0.77
   0  15   0  404.73   20.34
   0  15   0  412.62   19.74
   0  15   1   26.41    3.16
   0  15  -1   25.46    2.83
   0  15   1   24.90    2.06
   0  15  -1   21.55    2.00
   0  15  -1   31.31    2.12
   0  15   1   18.92    2.01
   0  15   2   22.33    2.05
   0  15   2   21.37    2.06
   0  15  -2   23.09    1.89
   0  15   2   28.95    3.22
   0  15  -2   25.85    1.91
   0  15   2   26.81    2.37
   0  15  -2   24.60    2.71
   0  15  -2   26.10    2.03
   0  15   3    4.35    2.67
   0  15  -3    1.47    1.90
   0  15  -3   -0.20    1.21
   0  15   3   -0.24    1.86
   0  15  -3    1.09    1.35
   0  15   3    0.56    1.36
   0  15   4    3.10    1.31
   0  15  -4    1.07    1.20
   0  15  -4    1.42    1.33
   0  15   4    2.26    1.44
   0  15  -5    1.36    1.14
   0  15  -5    1.03    1.24
   0  15   5    1.03    1.30
   0 -15   6    9.61    2.00
   0  15   6    7.66    1.08
   0  15  -6    7.84    1.14
   0  15  -6    6.94    1.15
   0  15  -7    2.88    0.82
   0 -15   7    7.52    1.34
   0  16   0    5.72    2.36
   0  16   0    7.28    1.50
   0  16  -1    5.61    2.21
   0  16   1    6.78    2.53
   0  16   1    4.01    1.46
   0  16  -1    3.46    1.39
   0  16   1    3.90    1.37
   0  16   2   44.32    3.88
   0  16   2   41.61    2.75
   0  16  -2   43.29    2.67
   0  16   2   34.85    2.70
   0  16  -2   43.64    2.68
   0  16  -2   45.22    2.73
   0  16  -2   43.56    3.40
   0  16   2   53.16    3.13
   0  16   3    0.43    1.31
   0  16  -3    1.66    1.21
   0  16   3    1.64    1.82
   0  16  -3    2.14    1.31
   0  16   4    2.52    1.22
   0  16  -4    2.39    1.20
   0  16  -4    1.87    1.30
   0  16  -5   -0.63    1.03
   0  16  -5   -0.63    1.10
   0 -16   6   13.10    1.87
   0  16   6   11.93    1.13
   0  16  -6   13.99    1.18
   0 -16   7    4.81    1.04
   0  17   0  279.88   13.64
   0  17   0  282.28   14.37
   0  17  -1    2.44    1.30
   0  17  -1    0.47    1.31
   0  17   1    3.38    1.41
   0  17   1    6.18    1.75
   0  17   1    2.17    2.37
   0  17  -1    4.29    2.17
   0  17   1    0.91    1.19
   0  17  -2    5.44    1.39
   0  17  -2    6.36    1.26
   0  17  -2    9.05    1.55
   0  17   2    9.26    1.94
   0  17   2    7.26    1.35
   0  17  -3    4.17    1.21
   0  17  -3    4.91    1.37
   0  17   3    2.72    1.85
   0  17   3    1.13    1.25
   0  17  -4    3.83    1.10
   0  17  -4    2.22    1.22
   0  17   4    3.32    1.14
   0  17  -5    0.06    0.94
   0  17  -5    1.55    1.00
   0  17   5   -0.23    0.89
   0  17   6    1.66    0.68
   0 -17   6    2.22    1.34
   0  18   0    2.45    1.36
   0  18  -1    2.61    1.27
   0  18   1    1.85    1.70
   0  18   1    2.60    1.09
   0  18  -2    8.29    1.41
   0  18   2   12.05    1.38
   0  18   2   12.63    1.92
   0  18  -2   10.22    1.32
   0  18   3   -0.27    1.59
   0  18   3    0.82    1.07
   0  18   4    1.25    0.96
   0  18   4    0.23    0.98
   0  18  -4    2.03    1.07
   0  18   5    0.63    0.79
   0  18  -5    1.64    0.86
   0 -18   6    1.80    1.00
   0  19   0    2.05    1.57
   0  19   0   -0.20    1.21
   0  19   1    2.28    0.90
   0  19  -1    0.24    1.12
   0  19   1    0.17    1.19
   0  19   1    2.77    1.55
   0  19   2    3.51    1.22
   0  19  -2    6.14    1.06
   0  19   2    3.46    1.62
   0  19   2    5.51    1.05
   0  19   3    2.06    0.97
   0  19   3    0.22    1.06
   0  19   4    0.92    0.83
   0  19   4    2.16    0.85
   0 -19   5   -1.78    1.20
   0  19   5    0.87    0.61
   0  20   0    1.74    1.09
   0  20   0    2.85    1.38
   0  20  -1    2.55    0.99
   0  20   1    0.68    1.10
   0  20  -1    3.38    1.35
   0  20   1    2.30    1.39
   0  20   2    1.13    1.03
   0  20  -2    1.33    0.75
   0  20   2    0.61    1.33
   0  20   2    2.22    0.78
   0  20   3    0.17    0.89
   0  20   3   -0.31    0.72
   0  20   4   28.67    1.61
   0  21   0    4.77    1.20
   0  21   0    4.16    0.95
   0  21   1    1.01    1.16
   0  21  -1    1.42    1.06
   0  21  -1    1.62    0.79
   0  21   1    0.24    0.88
   0  21  -2    2.55    0.98
   0  21   2    1.24    0.82
   0  21   3    0.64    0.66
   0 -21   4    4.45    0.82
   0  22   0   10.23    0.87
   0  22   1    0.88    0.65
   0  22   2    1.93    0.59
  -1   0   1    0.69    1.11
   1   0   1    0.71    0.45
  -1   0   2    6.89    1.97
  -1   0   2    4.80    1.10
   1   0   2    3.79    1.99
   1   0   2    5.10    0.94
  -1   0   3    2.03    1.22
  -1   0   3    1.73    2.14
   1   0   3    2.07    1.08
   1   0   3    2.49    2.18
   1   0   3    3.62    1.79
  -1   0   3    2.56    1.69
  -1   0   4    1.46    2.24
   1   0   4    0.85    2.38
   1   0   4    7.39    2.03
  -1   0   4    7.13    2.12
  -1   0   5    1.99    2.45
   1   0   5    0.46    2.38
   1   0   5    2.17    2.10
  -1   0   5    0.87    2.24
  -1   0   6    9.46    2.60
   1   0   6    6.40    2.59
   1   0   6    6.45    2.68
  -1   0   6   10.34    2.88
   1   0   6    5.45    1.58
  -1   0   6    8.01    1.59
  -1   0   6    6.26    1.35
  -1   0   6    7.43    1.41
   1   0   7    1.52    1.67
  -1   0   7    1.17    1.70
  -1   0   7    1.15    2.65
   1   0   7   -0.09    2.68
   1   0   7    3.96    2.84
  -1   0   7   -0.83    1.33
  -1   0   8    0.32    1.64
   1   0   8    0.17    1.62
  -1   0   9   -0.69    1.22
   1   0   9   -1.34    1.23
   1  -1   9    6.26    1.33
  -1   1   9    6.63    1.28
   1  -1   8   68.95    3.80
  -1   1   8   74.74    3.73
  -1   1   7   23.66    1.93
   1  -1   7   27.15    3.57
  -1   1   7   25.76    2.33
   1  -1   7   27.46    2.32
   1  -1   7   25.14    3.40
  -1   1   7   19.17    3.01
   1  -1   6   10.64    1.78
  -1   1   6   12.70    1.74
  -1   1   6   14.02    2.87
   1  -1   6    7.45    2.89
   1  -1   6   11.53    2.78
  -1   1   6   13.08    2.69
   1  -1   6   11.18    1.46
  -1   1   6   11.28    1.51
  -1   1   6   11.35    1.55
   1  -1   5    2.60    2.26
  -1   1   5    3.40    2.12
   1  -1   5    1.55    2.44
  -1   1   5    1.15    2.34
  -1   1   4   20.52    2.28
  -1   1   4   14.75    2.52
   1  -1   4   17.22    2.63
   1  -1   4   13.58    1.51
  -1   1   3   19.39    2.03
   1  -1   3   19.32    2.17
  -1   1   3   12.18    2.29
   1  -1   3   11.76    2.44
   1  -1   3   15.00    1.37
   1  -1   2   14.35    1.18
  -1   1   2   16.67    1.45
  -1   1   1  153.70    7.50
   1   1   0   61.44    2.96
   1   1   1  236.78   11.33
  -1  -1   2   14.63    1.29
  -1  -1   2    8.11    2.09
  -1  -1   3   13.74    2.45
  -1  -1   3   16.18    1.58
   1   1   3   23.24    2.06
  -1  -1   3   19.68    2.28
  -1  -1   4   17.18    1.71
  -1  -1   4   15.81    2.75
   1   1   4   22.97    2.32
  -1  -1   4   22.76    2.41
  -1  -1   5    3.36    2.47
   1   1   5    1.03    2.19
  -1  -1   5    3.57    2.40
   1   1   6   12.55    2.68
  -1  -1   6   15.35    2.80
  -1  -1   6   12.94    1.84
   1   1   6   12.90    1.70
  -1  -1   6   13.54    3.04
   1   1   6   11.03    1.46
  -1  -1   6   12.24    1.59
  -1  -1   6   10.52    1.46
   1   1   7   24.96    1.92
  -1  -1   7   30.80    3.60
   1   1   7   21.91    3.10
  -1  -1   7   22.18    3.35
   1   1   7   24.36    2.33
  -1  -1   7   30.24    2.42
   1   1   8   69.56    3.94
  -1  -1   8   68.81    3.97
   1   1   9    6.83    1.30
  -1  -1   9    7.51    1.35
   1  -2   9    1.43    1.28
  -1   2   8   15.73    1.79
   1  -2   8   16.08    1.99
  -1   2   8   18.18    1.53
  -1   2   7  158.57    7.71
   1  -2   7  174.49    9.08
   1  -2   7  165.92    8.88
  -1   2   7  169.36    8.59
   1  -2   7  141.70    7.89
  -1   2   7  148.60    7.83
  -1   2   6   26.28    2.20
   1  -2   6   27.53    2.33
   1  -2   6   29.83    3.54
   1  -2   6   33.01    3.44
  -1   2   6   32.39    3.13
  -1   2   6   27.32    2.09
  -1   2   6   30.95    2.11
   1  -2   6   33.64    2.07
   1  -2   5   72.94    4.73
  -1   2   5   69.32    4.42
  -1   2   5   69.45    4.60
   1  -2   5   72.15    4.84
  -1   2   4  414.09   20.05
   1  -2   4  439.02   20.25
   1  -2   4  401.32   19.79
   1  -2   4  412.26   20.23
  -1   2   3   26.96    2.24
   1  -2   3   31.50    2.58
   1  -2   3   27.11    1.80
   1  -2   3   30.56    2.80
  -1   2   2  501.48   23.93
   1   2   0   60.58    3.00
   1   2   1  478.17   22.69
   1   2   2  496.44   23.70
  -1  -2   3   33.06    2.94
  -1  -2   3   29.88    2.07
   1   2   3   34.33    2.41
  -1  -2   3   31.15    2.65
  -1  -2   4  416.68   19.96
  -1  -2   4  391.89   19.57
  -1  -2   4  429.24   19.95
   1   2   4  403.67   19.78
  -1  -2   5   69.03    4.70
  -1  -2   5   63.88    3.88
  -1  -2   5   78.89    4.67
   1   2   5   70.58    4.41
  -1  -2   6   29.63    2.32
   1   2   6   26.97    2.15
  -1  -2   6   30.54    3.49
   1   2   6   29.04    2.01
  -1  -2   6   29.34    2.04
   1   2   6   26.37    3.04
  -1  -2   6   32.20    3.40
   1   2   7  164.71    7.78
  -1  -2   7  142.23    7.95
   1   2   7  149.06    7.93
   1   2   7  162.08    8.63
  -1  -2   7  171.63    9.02
  -1  -2   7  172.40    9.06
   1   2   8   13.57    1.78
  -1  -2   8   16.51    1.99
  -1  -2   9    2.37    1.27
   1  -3   9    3.24    1.36
  -1   3   8   10.42    1.38
  -1   3   8   13.39    1.69
  -1   3   7  126.32    7.04
   1  -3   7  141.65    8.46
   1  -3   7  126.24    8.19
  -1   3   7  125.20    7.76
   1  -3   7  160.14    7.34
  -1   3   7  162.12    7.25
   1  -3   6    6.86    1.84
  -1   3   6    4.96    1.46
   1  -3   6    0.63    2.92
   1  -3   6    8.89    2.83
  -1   3   6    3.40    2.07
  -1   3   6    3.25    1.32
  -1   3   6    2.05    1.28
   1  -3   5   15.41    2.67
  -1   3   5   12.33    2.09
   1  -3   5    6.42    1.27
   1  -3   5   11.23    2.82
  -1   3   4  142.39    6.04
   1  -3   4  157.99    6.41
   1  -3   4  103.65    6.31
  -1   3   3   15.19    1.87
  -1   3   2  116.41    5.64
  -1   3   2  104.70    5.77
   1   3   0  371.28   17.65
   1   3   1  139.33    6.87
   1   3   2   93.75    5.42
   1   3   2  107.91    5.28
   1   3   2  105.66    5.42
   1   3   3   14.97    1.74
  -1  -3   3   10.10    2.47
   1   3   3   13.24    2.24
  -1  -3   4  146.35    6.50
   1   3   4  133.91    6.17
  -1  -3   4  103.53    6.44
  -1  -3   4   89.48    5.77
   1   3   4  119.10    6.30
  -1  -3   5   16.43    2.72
   1   3   5   11.77    2.21
   1   3   5   14.44    2.59
  -1  -3   5    9.07    2.78
  -1  -3   5    9.08    1.53
  -1  -3   6    6.38    1.82
   1   3   6    2.77    1.50
  -1  -3   6    4.73    2.99
   1   3   6    2.52    1.27
   1   3   6    3.26    1.97
  -1  -3   6    6.66    2.71
   1   3   7  131.31    7.34
  -1  -3   7  141.43    8.57
  -1  -3   7  169.20    7.63
   1   3   7  172.28    7.54
   1   3   7  128.48    8.07
  -1  -3   7  137.50    8.51
   1   3   8   17.32    1.73
  -1  -3   8   19.73    2.05
  -1  -3   9    5.31    1.37
   1  -4   9    0.35    1.28
  -1   4   8    8.71    1.29
   1  -4   8   11.46    1.82
  -1   4   8    7.76    1.48
  -1   4   7   43.64    2.75
   1  -4   7   53.80    4.48
  -1   4   7   41.34    2.79
   1  -4   7   47.40    3.17
  -1   4   7   48.47    3.62
   1  -4   7   53.98    4.36
  -1   4   6   40.82    2.55
   1  -4   6   41.98    4.09
  -1   4   6   48.02    3.38
   1  -4   6   48.93    3.99
   1  -4   6   38.20    2.94
  -1   4   6   38.12    2.59
   1  -4   5   56.50    4.19
   1  -4   5   45.67    2.94
  -1   4   5   51.01    3.36
   1  -4   5   62.18    4.12
  -1   4   5   49.63    2.82
   1  -4   5   46.18    3.08
  -1   4   4    4.86    1.67
   1  -4   4    1.62    2.13
   1  -4   4    4.98    2.59
   1  -4   4    3.00    1.16
  -1   4   3  161.35    8.38
  -1   4   3  177.89    8.61
  -1   4   2   10.26    1.36
  -1   4   2   10.23    1.77
   1   4  -1  373.32   17.84
   1   4   0  416.03   19.81
   1   4   1  379.36   18.14
   1   4   2    9.09    1.70
   1   4   2    8.91    1.33
   1   4   3  176.46    8.88
   1   4   3  172.85    8.67
  -1  -4   4    2.27    2.14
   1   4   4    4.67    1.61
  -1  -4   4    4.73    2.52
  -1  -4   4    4.41    1.32
   1   4   4    5.51    2.11
  -1  -4   5   43.54    2.97
  -1  -4   5   59.29    4.10
   1   4   5   43.17    2.68
  -1  -4   5   55.87    3.91
   1   4   5   46.98    3.29
   1   4   6   40.52    2.46
  -1  -4   6   40.13    3.95
  -1  -4   6   40.05    2.88
   1   4   6   35.44    2.49
   1   4   6   41.32    3.28
  -1  -4   6   46.23    4.00
   1   4   7   42.73    2.63
   1   4   7   39.68    2.73
  -1  -4   7   46.54    3.09
   1   4   7   40.56    3.42
  -1  -4   7   43.83    4.11
  -1  -4   7   48.51    4.35
  -1  -4   8    8.11    1.82
   1   4   8    6.30    1.46
   1   4   8    7.57    1.21
  -1  -4   9   -1.12    1.32
   1  -5   9    0.30    1.29
  -1   5   9    2.55    0.73
   1  -5   8   25.83    2.18
  -1   5   8   17.74    1.59
  -1   5   7   16.23    1.72
   1  -5   7   21.08    3.56
  -1   5   7   18.19    1.84
   1  -5   7   24.88    2.38
  -1   5   7   13.28    2.36
   1  -5   7   13.54    3.21
  -1   5   6   98.88    5.50
   1  -5   6  101.15    6.96
   1  -5   6  123.73    5.92
  -1   5   6  112.34    5.57
  -1   5   6   98.53    6.10
   1  -5   6  114.83    6.83
  -1   5   5   47.71    2.52
   1  -5   5   45.91    2.89
  -1   5   5   42.22    2.52
  -1   5   5   42.54    2.49
   1  -5   5   45.59    3.95
  -1   5   5   43.40    3.07
   1  -5   5   43.01    3.98
  -1   5   4    6.18    1.61
   1  -5   4    4.66    1.28
   1  -5   4    5.08    2.65
  -1   5   3  216.31   10.98
  -1   5   3  234.14   11.25
  -1   5   2   21.85    1.90
  -1   5   2   24.65    2.28
   1   5  -1   58.56    3.35
   1   5   0   16.00    1.72
   1   5   1   64.38    3.74
   1   5   1   68.16    3.53
   1   5   2   27.60    2.37
   1   5   2   23.33    1.93
   1   5   3  239.30   11.12
   1   5   3  232.12   11.31
   1   5   3  213.96   10.90
   1   5   4    7.56    1.73
  -1  -5   4    2.81    2.60
  -1  -5   4    3.63    1.34
   1   5   5   44.56    2.50
  -1  -5   5   48.49    3.99
   1   5   5   46.06    3.15
   1   5   5   45.22    2.54
  -1  -5   5   40.77    3.92
   1   5   6   95.75    5.16
  -1  -5   6   93.46    6.42
   1   5   6   80.63    5.70
   1   5   6  110.03    5.25
  -1  -5   6  117.85    5.60
  -1  -5   6   92.51    6.51
   1   5   7   16.14    1.64
  -1  -5   7   15.68    3.30
   1   5   7   13.79    2.38
   1   5   7   17.62    1.78
  -1  -5   7   23.95    2.38
  -1  -5   7   16.98    3.46
   1   5   8   19.15    1.59
  -1  -5   8   26.20    2.25
  -1  -5   9    2.66    1.32
  -1   6   9    3.91    0.76
   1  -6   9    4.53    1.28
  -1   6   8    5.76    1.18
   1  -6   8    7.11    1.82
   1  -6   7    7.81    2.16
  -1   6   7    2.84    1.33
   1  -6   7    3.65    3.16
  -1   6   7    2.59    1.90
   1  -6   7    3.88    3.00
  -1   6   6    1.03    1.30
   1  -6   6    1.66    2.24
  -1   6   6    3.18    1.09
   1  -6   6    6.05    3.22
  -1   6   6    3.89    1.97
  -1   6   6    4.72    1.44
   1  -6   6    4.32    3.48
  -1   6   5   52.07    3.05
  -1   6   5   59.63    3.12
   1  -6   5   46.75    3.25
   1  -6   5   63.83    4.77
   1  -6   5   63.16    4.58
  -1   6   5   63.01    3.67
  -1   6   5   55.57    3.11
  -1   6   4   12.43    1.79
  -1   6   3   20.50    2.48
  -1   6   3   15.22    1.74
  -1   6   2  108.44    5.84
  -1   6   2  124.33    6.18
   1   6  -2  117.96    5.97
  -1   6   1   18.47    1.82
   1   6  -1   16.28    1.68
   1   6   0    2.51    1.36
   1   6   1   16.81    1.83
   1   6   1   15.82    1.44
   1   6   2  109.45    5.84
   1   6   2  124.49    6.14
   1   6   3   16.95    1.76
   1   6   3   18.84    1.82
   1   6   3   20.55    2.47
  -1  -6   4   11.84    2.83
   1   6   4   12.58    1.79
   1   6   5   56.05    3.04
  -1  -6   5   48.16    3.36
  -1  -6   5   62.79    4.59
   1   6   5   51.62    3.01
   1   6   5   58.16    3.58
  -1  -6   5   61.34    4.50
   1   6   6    1.39    1.09
   1   6   6    0.27    1.40
  -1  -6   6    3.59    2.19
  -1  -6   6    3.39    3.26
   1   6   6    2.43    1.91
  -1  -6   6    7.40    3.14
   1   6   6    2.83    1.34
  -1  -6   7    6.18    2.11
  -1  -6   7    2.60    3.03
   1   6   7   -0.56    1.84
  -1  -6   7    1.68    3.02
   1   6   7    2.10    1.28
  -1  -6   8    8.73    1.77
   1   6   8    4.48    1.12
  -1  -6   9    3.98    1.31
   1  -7   9    5.70    1.25
  -1   7   9    4.07    0.74
   1  -7   8    6.58    1.80
  -1   7   8    3.06    1.11
   1  -7   7   11.73    2.15
   1  -7   7    8.48    3.32
   1  -7   7   12.53    3.17
  -1   7   7    9.86    2.03
  -1   7   7    8.78    1.47
  -1   7   6    2.44    1.15
   1  -7   6   -0.64    2.29
   1  -7   6    4.85    3.43
  -1   7   6    1.75    1.84
   1  -7   6    6.35    3.31
  -1   7   6    1.55    1.36
  -1   7   5    6.93    1.30
  -1   7   5    8.43    1.34
  -1   7   5    7.40    1.82
   1  -7   5    8.87    3.01
   1  -7   5    5.86    1.40
   1  -7   5    9.60    3.08
  -1   7   4   37.58    3.35
  -1   7   4   35.22    2.60
  -1   7   3  165.61    8.23
  -1   7   3  148.66    7.82
  -1   7   2  477.86   21.79
  -1   7   2  452.57   21.57
   1   7  -2  425.61   21.61
  -1   7   1   16.56    1.94
   1   7  -1   19.80    1.78
   1   7   0   27.54    2.13
   1   7   1   22.90    2.03
   1   7   1   17.30    1.62
   1   7   2  436.12   20.76
   1   7   2  432.02   20.56
   1   7   2  422.30   20.43
   1   7   3  140.48    7.59
   1   7   3  163.54    8.00
   1   7   3  150.57    7.47
  -1  -7   4   26.44    3.45
   1   7   4   32.08    2.49
   1   7   5    8.60    1.38
  -1  -7   5    5.49    1.62
  -1  -7   5   10.02    2.98
  -1  -7   5   10.50    2.92
   1   7   5   10.52    1.83
   1   7   6    2.25    1.32
  -1  -7   6    4.07    3.37
   1   7   6    0.97    1.80
  -1  -7   6    3.29    3.14
   1   7   6    0.51    1.18
  -1  -7   6   -0.44    2.30
   1   7   7   10.59    1.46
  -1  -7   7    8.27    3.17
  -1  -7   7   14.12    2.24
   1   7   7    7.78    1.96
  -1  -7   7   17.12    3.27
  -1  -7   8    6.38    1.79
   1   7   8    4.63    1.10
  -1  -7   9    5.04    1.27
   1  -8   9    2.97    1.14
   1  -8   8    8.82    1.77
  -1   8   8    6.34    1.12
   1  -8   7    2.08    2.04
  -1   8   7    1.15    1.26
  -1   8   6    6.54    1.48
   1   8  -6    6.21    2.24
   1  -8   6    9.85    3.42
   1  -8   6    6.46    2.25
  -1   8   6    8.50    1.36
  -1   8   6    6.72    1.91
   1  -8   6    9.03    3.37
  -1   8   5    4.51    1.27
   1  -8   5    2.91    1.38
   1  -8   5    6.66    3.16
   1  -8   5    3.86    3.03
  -1   8   5    4.66    1.65
  -1   8   5    5.33    1.31
  -1   8   4   32.50    2.09
  -1   8   4   33.01    2.43
   1   8  -4   29.00    2.72
  -1   8   4   38.33    3.36
   1   8  -3   26.52    2.32
  -1   8   3   27.73    2.18
  -1   8   3   23.58    2.07
  -1   8   3   32.44    2.91
  -1   8   2   17.23    1.75
  -1   8   2   18.98    2.38
   1   8  -2   14.69    1.92
   1   8  -1   23.47    2.01
  -1   8   1   23.35    2.17
   1   8   0   16.79    1.32
   1   8   0   15.92    1.77
   1   8   1   27.61    2.37
   1   8   2   13.58    1.54
   1   8   2   17.29    2.27
   1   8   3   26.88    2.15
   1   8   3   26.09    2.13
   1   8   3   31.29    2.86
  -1  -8   4   35.15    3.52
   1   8   4   30.63    2.06
   1   8   4   34.10    2.25
   1   8   4   32.46    3.22
   1   8   4   31.83    2.49
   1   8   5    6.23    1.34
   1   8   5    6.99    1.33
   1   8   5    4.98    1.71
  -1  -8   5    2.75    2.97
  -1  -8   5    7.15    3.12
  -1  -8   5    4.02    1.59
   1   8   6    7.38    1.37
  -1  -8   6    3.91    2.25
   1   8   6    7.41    1.42
  -1  -8   6   12.98    3.49
   1   8   6    4.56    1.87
  -1  -8   6    7.28    3.26
   1   8   7    1.95    1.25
  -1  -8   7    2.45    2.05
   1   8   8    6.39    1.12
  -1  -8   8    6.61    1.73
  -1  -8   9    2.34    1.12
   1  -9   9    5.50    1.06
  -1   9   8    3.43    1.02
   1  -9   8    7.25    1.63
  -1   9   7    1.19    1.23
   1  -9   7    2.90    2.00
  -1   9   6    1.81    1.31
   1  -9   6    4.35    3.27
   1  -9   6    0.30    2.36
  -1   9   6    1.82    1.68
   1  -9   6    5.22    3.27
  -1   9   6    2.67    1.26
   1   9  -6    2.17    2.04
  -1   9   5   16.99    1.80
   1   9  -5   22.68    2.54
   1  -9   5   17.64    3.65
  -1   9   5   19.97    2.11
   1  -9   5   21.64    3.64
   1  -9   5   13.23    1.90
  -1   9   5   20.38    1.73
  -1   9   4   13.75    1.82
  -1   9   4   16.99    2.73
   1   9  -4   12.21    2.05
  -1   9   3    5.23    1.48
  -1   9   3    7.00    1.72
  -1   9   3    7.73    2.50
   1   9  -3    6.17    1.71
   1   9  -2  117.53    6.50
  -1   9   2  116.45    6.39
  -1   9   1    9.27    1.83
   1   9  -1    8.44    1.64
   1   9   0   27.39    1.81
   1   9   0   26.90    2.23
   1   9   1    7.21    1.84
   1   9   2  104.14    5.67
   1   9   2  117.00    6.12
   1   9   3    6.69    2.38
   1   9   3    3.65    1.39
   1   9   3    6.54    1.67
   1   9   4   13.38    2.70
   1   9   4   12.23    1.36
  -1  -9   4   10.39    3.03
   1   9   4   12.67    1.76
   1   9   4   13.50    1.64
   1   9   5   18.48    2.12
   1   9   5   19.00    1.82
   1   9   5   19.52    1.67
  -1  -9   5   19.50    3.65
  -1  -9   5   22.36    3.51
  -1  -9   5   11.60    2.02
  -1  -9   6    0.98    3.16
  -1  -9   6   -0.69    2.36
   1   9   6    2.38    1.29
   1   9   6    2.33    1.36
   1   9   6    4.13    1.74
  -1  -9   6    0.84    3.21
  -1  -9   7    3.93    2.07
   1   9   7    1.59    1.22
  -1  -9   8    5.67    1.62
   1   9   8    3.35    1.00
  -1  -9   9    4.98    1.09
   1 -10   9    8.48    0.95
   1 -10   8    4.76    1.55
  -1  10   8    1.63    0.92
   1 -10   7    2.89    2.13
  -1  10   7    2.13    1.17
  -1  10   6   10.75    1.38
  -1  10   6   13.63    1.54
  -1  10   6   14.93    1.58
   1  10  -6   12.90    2.37
   1 -10   6   14.70    2.51
   1 -10   6   11.31    3.53
  -1  10   6   11.91    1.95
   1 -10   6   15.02    3.46
  -1  10   5   58.78    3.48
   1  10  -5   57.00    3.98
  -1  10   5   59.62    3.30
   1 -10   5   65.31    5.08
  -1  10   5   54.06    3.70
  -1  10   4    2.62    1.44
  -1  10   4    2.79    1.31
  -1  10   4    2.46    1.15
   1  10  -4    4.06    1.90
  -1  10   4    2.03    2.67
  -1  10   3   16.38    1.96
   1  10  -3   10.45    1.92
  -1  10   3   17.40    2.74
  -1  10   3   12.63    1.67
  -1  10   3   15.82    1.43
   1  10  -2  158.02    8.44
  -1  10   2  172.89    8.67
   1  10  -1   45.60    3.12
   1  10  -1   48.57    2.69
  -1  10   1   50.47    3.29
   1  10   0   10.95    1.24
  -1  10   0    9.93    1.76
   1  10   0    8.70    1.79
   1  10   1   49.33    3.28
   1  10   2  172.17    9.02
   1  10   3   14.21    2.65
   1  10   3   15.56    1.91
   1  10   3   13.03    1.60
   1  10   3   11.60    1.69
   1  10   3   13.22    1.39
  -1 -10   4    3.42    2.74
   1  10   4    3.87    1.24
   1  10   4    4.25    1.59
   1  10   4    3.20    2.63
   1  10   5   59.01    3.23
   1  10   5   59.24    3.44
  -1 -10   5   62.83    4.80
   1  10   5   57.30    3.71
   1  10   6   12.73    1.57
   1  10   6   13.30    1.52
  -1 -10   6   13.41    3.62
   1  10   6    8.81    1.84
  -1 -10   6   10.02    2.44
   1  10   7    1.08    1.10
   1  10   7    1.88    1.16
  -1 -10   7    2.55    2.10
  -1 -10   8    4.31    1.59
  -1  10  -9    3.88    0.71
  -1 -10   9    7.88    0.95
   1 -11   8    4.24    1.42
  -1  11   7    2.57    1.14
   1 -11   7    3.02    2.05
  -1  11   6   23.25    1.87
   1 -11   6   28.43    2.77
  -1  11   6   23.31    1.81
  -1  11   5   11.52    1.41
  -1  11   5    8.84    1.66
  -1  11   5   13.95    1.57
   1  11  -5   13.96    2.24
  -1  11   5    9.54    1.82
   1 -11   5   12.31    3.41
   1  11  -4    6.01    1.88
  -1  11   4    6.02    2.93
  -1  11   4    5.26    1.55
  -1  11   4    3.76    2.03
  -1  11   4    4.16    1.28
  -1  11   3   28.11    2.01
  -1  11   3   28.37    2.37
  -1  11   3   32.91    3.31
  -1  11   3   35.16    2.53
   1  11  -3   31.90    2.63
  -1  11   3   28.39    2.22
  -1  11   3   32.47    2.02
  -1  11   2   18.04    1.77
  -1  11   2   14.44    2.45
   1  11  -2   11.24    1.97
   1  11  -1    8.18    1.15
  -1  11   1   11.36    2.06
   1  11  -1    8.33    1.74
   1  11   0    3.95    1.14
   1  11   0    4.60    1.63
  -1  11   0    3.41    1.65
   1  11   1    8.85    1.98
   1  11   2   10.46    2.21
   1  11   2   11.00    1.37
   1  11   2   12.69    1.68
   1  11   2    8.57    1.45
   1  11   3   33.69    3.26
   1  11   3   30.58    2.38
   1  11   3   25.77    1.98
   1  11   3   28.03    2.19
   1  11   3   34.19    2.49
  -1 -11   4    6.29    2.89
   1  11   4    3.35    2.00
   1  11   4    5.15    1.33
   1  11   4    6.20    2.77
   1  11   4    4.39    1.54
   1  11   5   13.11    1.75
   1  11   5   11.96    1.91
   1  11   5   14.25    1.56
   1  11   5   14.65    1.56
   1  11   6   20.45    1.89
   1  11   6   16.09    1.70
   1  11   6   22.63    1.78
   1  11   7    3.31    1.16
  -1 -11   7    1.43    2.09
  -1 -11   8    4.09    1.46
   1 -12   8    4.62    1.30
  -1  12   7    9.41    1.21
   1 -12   7   11.69    2.07
  -1  12   6   99.44    5.12
  -1  12   6  101.56    5.03
  -1  12   6   89.25    4.93
  -1  12   5   11.32    1.82
   1  12  -5   10.00    2.14
  -1  12   5    8.99    1.41
  -1  12   5    9.10    1.60
  -1  12   4   -0.42    2.06
  -1  12   4    4.68    1.36
  -1  12   4    1.78    2.90
   1  12  -4    1.41    1.88
  -1  12   3    3.81    1.34
  -1  12   3    6.32    1.84
  -1  12   3    5.50    1.58
  -1  12   3    7.22    1.23
  -1  12   3    4.21    1.30
   1  12  -3    6.79    1.93
  -1  12   3    5.03    2.53
   1  12  -2    2.97    1.18
  -1  12   2    3.75    1.54
  -1  12   2    2.51    1.38
   1  12  -2    1.75    0.98
   1  12  -2    3.29    1.75
  -1  12   2    2.57    2.14
  -1  12   2    3.27    1.31
  -1  12   2    2.23    1.06
   1  12  -1   16.70    1.54
   1  12  -1   17.56    2.09
  -1  12   1   15.35    2.27
   1  12   0    9.72    1.36
  -1  12   0    7.60    1.94
   1  12   0   10.94    2.02
   1  12   1   15.26    1.56
  -1  12  -1   14.77    1.38
   1  12   1   14.61    2.30
   1  12   2    1.33    1.33
  -1  12  -2    2.02    1.05
   1  12   2    4.71    1.57
   1  12   2    3.34    1.30
   1  12   2    2.06    2.08
  -1  12  -2    2.23    1.05
   1  12   3    6.00    1.30
   1  12   3    4.88    1.35
   1  12   3    5.80    1.45
   1  12   3    6.91    2.56
   1  12   3    7.82    1.84
   1  12   4    0.04    2.00
   1  12   4    2.53    2.82
   1  12   4    3.74    1.36
   1  12   5   11.33    1.83
   1  12   5    9.42    1.45
   1  12   5    9.08    1.59
   1  12   5   11.54    1.50
  -1 -12   6  111.79    5.69
   1  12   6   91.99    4.98
   1  12   6  100.29    5.17
   1  12   6   99.42    5.06
  -1 -12   7   13.37    2.15
  -1 -12   8    4.18    1.29
   1 -13   8    4.47    1.02
   1  13  -8    1.47    0.72
   1 -13   7   11.13    1.87
   1  13  -7    5.30    1.09
  -1  13   6   18.08    1.68
  -1  13   6   20.81    1.66
   1  13  -5   13.18    2.20
  -1  13   5   10.25    1.48
  -1  13   5   11.26    1.59
  -1  13   4    1.22    2.85
   1  13  -4   -1.86    1.93
  -1  13   4    2.01    1.27
  -1  13   4    1.70    1.36
  -1  13   4    1.43    1.39
  -1  13   3    0.99    1.34
   1  13  -3    3.26    1.95
  -1  13   3    4.44    2.72
   1  13  -3    0.73    1.16
  -1  13   3    5.65    1.63
  -1  13   3    2.99    1.20
  -1  13   3    3.31    1.36
   1  13  -3    3.06    1.36
  -1  13   3    1.57    1.88
  -1  13   2  133.03    6.15
   1  13  -2  105.74    6.38
  -1  13   2  118.30    6.04
   1  13  -2  105.36    5.83
  -1  13   2  124.75    6.02
  -1  13   2  126.92    6.84
   1  13  -2  115.48    5.92
  -1  13   2  112.19    5.87
  -1  13   1    9.39    1.41
   1  13  -1   10.66    1.98
  -1  13   1   11.29    1.49
   1  13  -1   10.62    1.30
   1  13  -1   12.50    1.45
   1  13   0    1.17    1.25
  -1  13   0   -0.74    1.92
   1  13   0   -0.37    1.91
   1  13   0    0.64    1.11
  -1  13   0   -0.79    1.22
   1  13   1   12.93    2.32
   1  13   1   11.82    1.42
  -1  13  -1   12.45    1.34
   1  13   2  119.88    5.90
   1  13   2  111.47    6.58
  -1  13  -2  123.83    5.71
   1  13   2  109.02    5.64
  -1  13  -2  127.26    5.68
  -1  13  -3    1.64    1.22
   1  13   3    5.03    2.66
   1  13   3    1.37    1.81
   1  13   3    3.37    1.39
   1  13   4   -2.31    2.77
   1  13   4    3.01    1.39
   1  13   4   -0.27    1.35
   1  13   5   17.62    1.69
   1  13   5   17.89    1.67
   1  13   5   16.61    1.82
   1  13   6   18.52    1.58
   1  13   6   18.22    1.66
  -1 -13   7    9.67    1.86
  -1 -13   8    1.81    1.04
   1 -14   8    2.04    0.71
   1  14  -7    2.88    0.91
   1  14  -7    1.92    0.93
   1 -14   6    8.20    2.23
   1  14  -6    8.25    1.19
   1  14  -6    6.80    1.24
  -1  14   6    8.26    1.19
  -1  14   5    6.09    1.37
   1  14  -5    6.50    1.21
   1  14  -5    6.08    1.38
  -1  14   4    1.41    1.35
  -1  14   4    0.88    1.35
   1  14  -4    1.25    1.88
  -1  14   4    2.45    2.68
   1  14  -4    0.81    1.22
   1  14  -4   -0.14    1.27
  -1  14   3    6.70    1.50
  -1  14   3    8.65    1.55
   1  14  -3    6.58    2.08
  -1  14   3    9.00    2.73
  -1  14   3   10.19    2.02
   1  14  -3    6.69    1.50
   1  14  -3    7.35    1.32
  -1  14   3    7.13    1.71
  -1  14   2    4.79    1.44
  -1  14   2   12.84    1.91
   1  14  -2    7.64    1.38
  -1  14   2    9.32    2.67
   1  14  -2    6.91    2.02
   1  14  -2    7.18    1.24
  -1  14   2    6.19    1.65
   1  14  -2    5.46    1.27
  -1  14   1    8.55    2.44
   1  14  -1    8.65    2.08
   1  14  -1    6.23    1.40
   1  14  -1    6.62    1.27
  -1  14   1    9.39    1.49
  -1  14   1    4.98    1.31
  -1  14   0   13.88    2.39
   1  14   0   15.60    2.36
  -1  14   0   12.60    1.58
   1  14   0   11.45    1.46
   1  14   1    8.35    2.35
   1  14   1    6.61    1.37
  -1  14  -1    6.73    1.27
   1  14   2    5.85    1.51
  -1  14  -2    7.00    1.33
   1  14   2    8.09    1.62
   1  14   2    8.45    2.62
  -1  14  -2    6.80    1.27
   1  14   2    8.39    1.82
   1  14   3    5.14    1.50
   1  14   3    7.89    1.53
   1  14   3    9.61    2.82
  -1  14  -3    8.20    1.35
   1  14   3    6.36    1.96
   1  14   4   -0.10    2.72
  -1  14  -4   -0.35    1.24
   1  14   4    0.50    1.33
   1  14   4    1.06    1.40
  -1  14  -5    5.62    1.26
   1  14   5    6.17    1.36
  -1  14  -6    8.54    1.23
   1  14   6    6.98    1.17
  -1  14  -7    4.36    0.99
  -1 -14   7    7.08    1.65
  -1  14  -8    0.63    0.48
   1  15  -7    4.07    0.83
   1 -15   7    7.35    1.38
   1  15  -6    5.13    1.10
   1  15  -6    5.43    1.09
  -1  15   6    6.65    1.03
   1 -15   6    5.70    1.91
   1  15  -5    0.87    1.06
   1  15  -5    1.30    1.22
   1  15  -4   -0.67    1.32
  -1  15   4    0.50    1.26
   1  15  -4   -0.19    1.18
  -1  15   3    6.38    2.72
   1  15  -3    1.48    1.87
  -1  15   3    4.66    1.93
   1  15  -3    3.19    1.40
  -1  15   3    3.61    1.40
   1  15  -3    2.09    1.16
  -1  15   2    4.68    1.45
   1  15  -2    6.08    2.07
  -1  15   2   10.78    2.73
   1  15  -2    6.46    1.28
  -1  15   2    6.00    1.64
   1  15  -2    8.39    1.38
  -1  15   2    8.29    1.87
   1  15  -2    7.90    1.55
  -1  15   1  154.70    9.25
   1  15  -1  211.44    9.29
  -1  15   1  169.70    9.27
   1  15  -1  221.43    9.33
   1  15  -1  210.07    9.99
  -1  15   1  158.60    9.93
  -1  15   0   18.69    2.67
   1  15   0   15.73    2.62
   1  15   0   16.46    1.72
  -1  15   0   19.00    1.82
   1  15   1  205.97   10.18
  -1  15  -1  169.36    9.28
   1  15   1  193.83    9.29
   1  15   1  194.65    9.35
   1  15   2    2.67    1.43
   1  15   2    9.75    1.91
   1  15   2   11.97    2.73
  -1  15  -2    5.92    1.28
  -1  15  -2    6.43    1.38
   1  15   2    5.78    1.45
   1  15   3    1.51    1.36
   1  15   3    4.36    1.52
   1  15   3    2.22    2.63
  -1  15  -3    3.08    1.20
   1  15   3    0.32    1.91
  -1  15  -4    0.20    1.25
   1  15   4   -0.44    1.27
   1  15   4    2.33    1.42
  -1  15  -5    1.68    1.17
   1  15   5    2.15    1.29
  -1  15  -6    7.19    1.12
   1  15   6    5.63    1.05
  -1  15  -7    4.67    0.87
   1 -16   7   10.40    1.08
   1  16  -6    3.42    0.95
   1  16  -6    3.55    0.91
  -1  16   6    3.76    0.87
   1 -16   6    2.09    1.70
   1  16  -5    2.26    1.10
   1  16  -5    2.47    1.06
   1  16  -4    0.03    1.27
   1  16  -4    1.96    1.11
  -1  16   4    0.78    1.16
  -1  16   3    3.58    1.84
   1  16  -3    4.48    1.35
   1  16  -3    2.90    1.18
  -1  16   3    2.08    1.30
  -1  16   2    8.34    1.52
   1  16  -2   12.12    1.57
  -1  16   2   12.41    2.04
  -1  16   2   11.94    2.79
   1  16  -2   11.45    2.22
   1  16  -2   10.14    1.44
  -1  16   2    6.96    1.65
   1  16  -2   10.14    1.39
   1  16  -1   47.65    3.61
  -1  16   1   39.69    3.69
  -1  16   1   45.43    2.72
  -1  16   1   40.30    2.83
   1  16  -1   45.69    2.75
   1  16   0    1.19    2.22
   1  16   0    3.61    1.39
  -1  16   0    3.35    1.44
   1  16   1   45.13    2.76
   1  16   1   37.07    2.71
  -1  16  -1   47.10    2.82
  -1  16  -1   46.82    2.82
   1  16   1   44.25    3.80
   1  16   2    5.67    1.53
   1  16   2    8.81    1.45
  -1  16  -2   10.90    1.49
   1  16   2   13.71    2.03
  -1  16  -2    9.93    1.44
   1  16   2   16.31    2.89
   1  16   3    2.89    1.34
  -1  16  -3    3.79    1.26
   1  16   3    3.34    1.83
   1  16   4    0.90    1.20
  -1  16  -4    1.21    1.15
  -1  16  -5    2.56    1.10
   1  16   6    4.62    0.90
  -1  16  -6    3.10    0.96
  -1  16  -7    4.46    0.69
   1 -17   6    1.92    1.35
  -1  17   6    3.95    0.72
  -1  17   5    0.43    0.91
   1  17  -5    1.97    1.01
  -1  17   4    3.22    1.13
   1  17  -4    4.16    1.08
   1  17  -4    4.12    1.25
  -1  17   3    4.18    1.27
   1  17  -3    5.33    1.19
   1  17  -3    6.94    1.42
  -1  17   3    3.84    1.88
  -1  17   2    6.87    1.87
   1  17  -2    7.03    1.51
   1  17  -2    6.65    1.28
   1  17  -2    5.86    1.38
  -1  17   2    6.93    1.33
   1  17  -1   18.87    2.70
  -1  17   1   16.56    2.89
   1  17  -1   21.39    1.85
  -1  17   1   21.10    1.97
  -1  17   1   27.32    2.24
   1  17  -1   23.77    1.90
  -1  17   1   21.79    1.73
  -1  17   0   46.42    2.92
   1  17   0   47.92    2.84
   1  17   0   45.96    3.79
   1  17   1   19.62    2.95
  -1  17  -1   19.81    1.91
  -1  17  -1   23.76    1.99
   1  17   1   23.32    1.85
   1  17   2    4.99    1.31
   1  17   2    8.47    1.89
  -1  17  -2    5.93    1.27
  -1  17  -2    3.06    1.38
   1  17   3    4.55    1.86
   1  17   3    4.55    1.28
  -1  17  -3    6.46    1.31
   1  17   4    4.32    1.17
  -1  17  -4    4.25    1.17
   1  17   5    1.33    0.94
  -1  17  -5    3.10    1.00
  -1  17  -6    2.58    0.83
   1  17   6    4.08    0.73
   1 -18   6    2.12    0.97
  -1  18   5    2.67    0.81
   1  18  -5    2.73    0.87
   1  18  -4    1.90    1.07
  -1  18   4    1.01    0.97
  -1  18   4    1.02    0.95
  -1  18   3    1.53    1.65
  -1  18   3    2.58    1.09
  -1  18   2    7.74    1.82
   1  18  -2    7.43    1.21
  -1  18   2    7.03    1.26
  -1  18   1   21.38    2.10
   1  18  -1   17.34    1.69
  -1  18   1   18.21    1.52
  -1  18   0    6.54    1.43
  -1  18   0    9.77    1.48
  -1  18  -1   15.36    1.68
   1  18   1   16.44    1.51
  -1  18  -1   18.18    1.71
   1  18   1   19.45    2.10
  -1  18  -2    7.62    1.34
  -1  18  -2    6.70    1.25
   1  18   2    8.51    1.86
   1  18   2    6.05    1.24
  -1  18  -3    2.40    1.18
   1  18   3    1.36    1.67
   1  18   3    0.44    1.08
  -1  18  -4    0.27    1.04
   1  18   4    1.49    0.98
   1  18   5    2.70    0.83
   1 -19   5    0.14    1.13
  -1  19   4    6.78    0.96
  -1  19   4    8.08    0.97
  -1  19   3    2.23    0.96
  -1  19   3    0.81    1.02
  -1  19   2    3.05    0.99
  -1  19   2    2.57    1.19
   1  19  -2    2.32    0.95
  -1  19   2    3.09    1.59
  -1  19   1    1.79    1.28
   1  19  -1    5.87    1.23
  -1  19   1    2.75    1.53
   1  19   0    9.34    1.41
  -1  19   0   13.00    1.73
   1  19   0   10.92    1.75
   1  19   1    1.74    1.23
  -1  19  -1    4.34    1.21
   1  19   1    5.57    1.60
   1  19   1    3.41    0.92
  -1  19  -2    3.87    1.03
   1  19   2    0.41    1.59
   1  19   2    2.46    0.97
   1  19   3    4.32    0.99
   1  19   4    5.80    0.96
   1  19   4    6.78    0.94
   1  19   5    2.14    0.63
  -1  20   3    1.67    0.89
  -1  20   3    1.92    0.75
  -1  20   2    0.10    1.00
  -1  20   2   -0.39    1.36
  -1  20   2    2.08    0.77
  -1  20   1    5.59    1.18
   1  20  -1    5.18    1.03
  -1  20   1    3.82    1.45
   1  20  -1    6.26    1.38
   1  20   0    4.56    1.12
  -1  20   0    2.23    1.12
   1  20   0    1.76    1.38
  -1  20   0    1.27    1.38
  -1  20  -1    4.98    1.06
   1  20   1    5.93    1.20
   1  20   1    5.56    1.47
   1  20   2    0.68    1.01
  -1  20  -2    0.12    0.79
   1  20   2   -0.16    1.33
   1  20   2    1.10    0.76
   1  20   3    0.37    0.86
   1  20   3    2.48    0.77
   1  20   4    3.43    0.73
   1  20   4    7.07    0.74
   1 -21   4    4.27    0.78
  -1  21   3    2.02    0.67
   1  21  -2    2.97    0.99
  -1  21   2    0.90    0.85
  -1  21   1    1.10    1.14
   1  21  -1    1.90    1.08
   1  21  -1    0.79    0.73
  -1  21   1    0.22    0.88
   1  21   0    6.03    1.21
   1  21   0    4.19    0.93
  -1  21   0    6.22    0.99
   1  21   1    1.51    1.14
  -1  21  -1    0.90    0.79
   1  21   1    0.89    0.89
   1  21   2    0.84    0.81
   1  21   3    0.45    0.65
  -1  22   2    0.94    0.56
  -1  22   1    1.64    0.67
   1  22   0   11.79    0.90
  -1  22   0   10.30    0.92
   1  22   1    0.95    0.63
   1  22   2    0.68    0.54
  -2   0   0  628.58   29.64
  -2   0   1 1024.55   47.49
   2   0   1  987.76   47.47
   2   0   2  946.77   43.95
  -2   0   2  943.47   44.15
  -2   0   2  904.95   44.04
   2   0   2  916.64   44.12
  -2   0   3  243.37   11.52
  -2   0   3  228.54   11.74
   2   0   3  234.60   11.70
  -2   0   4    7.73    2.38
  -2   0   4    6.86    1.45
  -2   0   5    3.55    2.52
   2   0   5    4.21    2.36
   2   0   6   16.60    2.89
  -2   0   6   17.33    3.09
  -2   0   6   20.76    1.69
   2   0   6   16.32    1.89
  -2   0   6   17.97    1.79
   2   0   7    8.83    1.91
   2   0   7   10.65    2.83
  -2   0   7   12.20    1.55
  -2   0   8   31.59    2.01
   2   0   8   28.81    2.39
   2   0   9   19.96    1.67
   2  -1   9    6.86    1.34
  -2   1   8   16.45    1.62
   2  -1   8   28.40    2.15
   2  -1   7    8.66    3.09
  -2   1   7    5.79    1.46
   2  -1   7   10.71    1.97
   2  -1   7    4.34    2.81
   2  -1   6    3.56    1.65
   2  -1   6    5.63    2.79
  -2   1   6    1.84    2.51
   2  -1   6    3.14    2.45
  -2   1   6    1.73    1.30
  -2   1   6    2.72    1.41
   2  -1   5    5.79    2.45
   2  -1   5    1.17    2.50
  -2   1   5    3.15    2.41
   2  -1   4    5.34    2.44
  -2   1   4    7.81    2.50
   2  -1   3    7.59    2.15
   2  -1   3    4.58    0.99
   2  -1   3    3.18    2.26
  -2   1   3    6.06    2.11
   2  -1   2   43.87    2.72
   2  -1   2   34.79    1.96
  -2   1   2   38.73    2.27
  -2   1   2   29.90    2.77
  -2   1   1   44.18    2.51
   2   1   0    7.43    0.53
   2   1   1   63.08    2.94
   2   1   1   60.74    2.93
  -2  -1   2   29.26    2.73
  -2  -1   2   33.57    2.18
  -2  -1   3    5.61    2.22
  -2  -1   3    4.85    1.38
   2   1   3    8.15    1.85
  -2  -1   4    6.36    2.44
  -2  -1   4    7.17    1.46
  -2  -1   5    5.17    2.53
   2   1   5    5.91    2.15
   2   1   6    2.17    2.33
  -2  -1   6    3.28    2.75
   2   1   6    3.36    1.56
  -2  -1   6    2.69    1.27
  -2  -1   6    3.48    1.46
   2   1   7    2.43    2.53
   2   1   7    6.08    1.78
  -2  -1   7    6.62    1.35
  -2  -1   7    8.06    3.02
  -2  -1   7    6.40    1.44
   2   1   8   27.08    2.18
   2   1   9    4.14    1.24
   2  -2   9    1.65    1.24
  -2   2   8    2.33    1.17
   2  -2   8    1.11    1.71
  -2   2   7  103.05    5.36
   2  -2   7  111.14    6.75
   2  -2   7   98.29    5.54
   2  -2   7  116.65    6.69
   2  -2   6   18.02    2.03
   2  -2   6   19.51    3.32
   2  -2   6   20.74    2.94
  -2   2   6   16.98    1.66
  -2   2   6   15.38    1.69
   2  -2   5   20.04    2.68
   2  -2   5   15.55    2.86
  -2   2   5   16.00    2.64
   2  -2   4   96.75    5.37
   2  -2   4   84.41    4.60
   2  -2   4   98.63    5.48
  -2   2   4   92.24    5.22
   2  -2   3   94.68    4.99
   2  -2   3   81.83    4.37
  -2   2   3   95.39    4.94
  -2   2   2  117.30    6.09
   2   2   0   85.67    4.17
   2   2   1  909.15   42.78
   2   2   1  915.94   42.78
   2   2   1  890.24   42.79
   2   2   2  110.84    5.88
  -2  -2   2  114.21    5.93
   2   2   2  113.42    5.78
   2   2   2  109.98    5.77
   2   2   3   86.52    5.00
  -2  -2   3   95.39    5.12
  -2  -2   3   85.88    4.57
   2   2   3   86.01    4.79
  -2  -2   4   96.62    5.62
  -2  -2   4   91.81    4.99
   2   2   4   95.38    5.27
  -2  -2   5   19.44    2.83
  -2  -2   5   14.81    1.75
   2   2   5   16.78    2.32
   2   2   6   14.78    1.78
  -2  -2   6   20.36    3.16
   2   2   6   16.01    1.55
  -2  -2   6   15.94    1.60
   2   2   6   16.33    2.61
   2   2   7   96.12    5.59
  -2  -2   7  109.01    6.70
   2   2   7  111.37    5.44
  -2  -2   7  108.06    5.47
   2   2   7  110.02    6.33
   2   2   8    2.48    1.45
   2  -3   9    3.95    1.33
  -2   3   8    7.06    1.30
   2  -3   8    9.83    1.81
  -2   3   7  158.09    8.42
   2  -3   7  169.01    9.75
   2  -3   7  149.63    9.47
   2  -3   6   10.55    1.93
   2  -3   6    3.18    2.95
   2  -3   6    5.98    2.74
  -2   3   6    6.19    1.36
  -2   3   6    6.30    1.42
   2  -3   5   30.42    3.13
   2  -3   5   27.35    3.22
   2  -3   4   99.24    5.81
   2  -3   4  120.03    6.69
   2   3   0   13.38    1.17
   2   3   1  393.10   18.60
   2   3   1  387.63   18.63
   2   3   2   46.17    3.13
   2   3   2   51.20    2.99
   2   3   2   50.86    3.08
  -2  -3   3   13.50    2.61
   2   3   3   19.07    2.33
  -2  -3   3   14.48    1.61
   2   3   3   20.14    1.95
  -2  -3   4  124.40    7.28
  -2  -3   4  111.74    6.77
   2   3   4  152.96    7.31
   2   3   4  160.74    7.13
  -2  -3   5   21.38    3.15
  -2  -3   5   19.58    2.03
   2   3   5   27.12    2.55
   2   3   6    8.24    2.15
   2   3   6    6.73    1.47
  -2  -3   6    5.40    2.95
  -2  -3   6    4.74    1.26
   2   3   6    4.87    1.28
  -2  -3   7  159.76    9.05
   2   3   7  150.62    7.81
  -2  -3   7  139.26    7.79
   2   3   7  147.23    8.58
   2   3   8    8.20    1.55
  -2   4   9    3.51    0.81
   2  -4   9    1.33    1.28
  -2   4   8    8.82    1.32
   2  -4   8    8.86    1.86
  -2   4   7   19.47    1.87
   2  -4   7   23.16    3.64
   2  -4   7   25.65    2.35
   2  -4   7   23.58    3.43
   2  -4   6    8.95    1.95
  -2   4   6    7.48    1.44
   2  -4   6    8.49    3.21
  -2   4   6    8.56    1.40
   2  -4   6   14.27    3.10
   2  -4   5   75.71    4.24
   2  -4   5   89.66    5.35
   2  -4   5   68.80    4.07
   2  -4   5   87.92    5.20
  -2   4   5   76.34    4.02
  -2   4   5   78.32    4.04
   2  -4   4   51.70    3.76
   2  -4   4   47.34    2.78
   2  -4   4   48.97    3.90
   2   4  -1   35.11    2.30
   2   4   0  433.02   20.60
   2   4   1   31.11    2.01
   2   4   1   31.93    2.20
   2   4   2   38.52    2.43
   2   4   2   37.65    2.56
  -2  -4   3   44.19    3.50
   2   4   3   46.74    3.17
   2   4   3   45.78    2.85
   2   4   3   47.80    3.21
   2   4   4   49.51    3.23
  -2  -4   4   47.19    3.05
  -2  -4   4   56.40    3.90
   2   4   4   52.18    3.60
   2   4   5   84.42    4.63
   2   4   5   71.45    4.06
  -2  -4   5   80.93    4.45
  -2  -4   5   85.12    5.31
   2   4   6    6.63    1.50
  -2  -4   6    5.53    1.48
  -2  -4   6    9.24    3.12
   2   4   6    8.51    2.16
   2   4   6    6.90    1.35
   2   4   7   21.42    1.78
   2   4   7   20.55    2.66
   2   4   7   20.44    1.92
  -2  -4   7   23.27    3.57
   2   4   8    7.65    1.16
   2  -5   9    2.60    1.29
  -2   5   9    3.39    0.78
   2  -5   8   25.78    2.19
  -2   5   8   17.61    1.60
  -2   5   7   23.46    2.01
   2  -5   7   24.13    3.78
   2  -5   7   32.92    2.58
   2  -5   7   22.33    3.47
   2  -5   6   56.88    4.90
   2  -5   6   63.22    3.51
   2  -5   6   56.77    4.61
   2  -5   5   37.70    2.54
  -2   5   5   32.03    2.06
  -2   5   5   32.96    2.02
   2  -5   5   29.90    3.69
   2  -5   5   40.53    3.59
   2  -5   4   55.90    3.18
   2   5  -1   29.89    2.17
   2   5   0   10.00    1.47
   2   5   1   31.32    2.21
   2   5   1   32.03    2.03
   2   5   2  153.03    7.53
   2   5   2  143.06    7.35
   2   5   3  399.29   19.17
   2   5   3  409.59   19.35
   2   5   3  390.96   18.97
  -2  -5   4   85.25    5.39
  -2  -5   4   72.89    4.60
   2   5   5   30.97    2.09
  -2  -5   5   20.88    2.39
  -2  -5   5   27.17    3.51
   2   5   5   38.23    2.76
   2   5   5   40.05    2.18
   2   5   6   46.25    2.83
  -2  -5   6   47.26    4.37
   2   5   6   48.37    3.54
   2   5   6   50.03    2.91
   2   5   7   22.13    1.82
  -2  -5   7   27.34    3.63
   2   5   7   21.52    2.60
   2   5   7   24.96    2.04
   2   5   8   16.59    1.42
   2  -6   9    1.31    1.24
  -2   6   9    1.80    0.75
   2  -6   8    4.95    1.70
  -2   6   8    3.09    1.16
   2  -6   7   13.56    2.14
   2  -6   7   14.84    3.42
   2  -6   7   11.22    3.08
  -2   6   7   12.66    1.57
   2  -6   6   15.52    2.33
  -2   6   6   15.18    1.41
  -2   6   6   15.13    1.68
   2  -6   6   16.83    3.57
   2  -6   6   18.72    3.80
  -2   6   5    4.92    1.16
   2  -6   5    5.27    3.07
   2  -6   5    8.87    2.92
  -2   6   5    7.21    1.32
   2   6  -2   73.51    4.11
   2   6  -1    5.41    1.42
   2   6   0   40.40    2.54
   2   6   1    6.95    1.55
   2   6   1    5.40    1.23
   2   6   2   81.31    4.31
   2   6   2   69.12    3.96
   2   6   3  248.73   12.64
   2   6   3  266.97   12.91
   2   6   3  261.49   12.49
   2   6   4   10.52    1.75
  -2  -6   4   13.31    2.78
  -2  -6   5    6.05    1.63
  -2  -6   5    6.73    2.92
   2   6   5    5.40    1.20
   2   6   5    6.48    1.27
   2   6   5    7.23    1.74
   2   6   6   15.45    1.56
   2   6   6   11.16    1.40
   2   6   6   11.91    1.53
   2   6   6   13.35    2.22
  -2  -6   6   13.53    3.44
   2   6   7   12.31    2.18
  -2  -6   7   16.07    3.33
   2   6   7   12.88    1.50
   2   6   8    2.81    1.06
  -2   7   9    6.59    0.81
   2  -7   9    7.01    1.25
   2  -7   8    4.91    1.66
  -2   7   8    2.79    1.11
   2  -7   7    8.27    2.19
   2  -7   7    4.44    3.30
   2  -7   7    7.62    3.05
  -2   7   7    4.37    1.35
   2  -7   6    2.69    2.14
  -2   7   6    3.73    1.16
   2  -7   6    8.01    3.50
   2  -7   6    3.26    3.32
  -2   7   6    2.70    1.43
  -2   7   5    1.89    1.19
  -2   7   5    3.52    1.24
   2  -7   5    4.48    2.96
   2  -7   5    3.78    3.11
   2   7  -2  351.27   17.02
   2   7  -1   20.38    1.94
   2   7   0   19.31    1.81
   2   7   1   19.26    1.68
   2   7   1   21.39    2.07
   2   7   2  354.57   16.76
   2   7   2  334.57   16.89
   2   7   2  364.60   17.10
   2   7   3   26.30    2.18
   2   7   3   25.30    2.06
   2   7   3   29.96    2.66
   2   7   4    7.03    2.44
  -2  -7   4    4.21    2.66
   2   7   4   10.00    1.65
   2   7   5    3.09    1.68
   2   7   5    2.81    1.26
  -2  -7   5    4.50    2.92
  -2  -7   5    3.17    1.56
   2   7   6   -0.06    1.80
   2   7   6    2.44    1.32
   2   7   6    3.75    1.25
  -2  -7   6    1.34    3.15
   2   7   7    3.84    1.83
   2   7   7    2.91    1.26
   2   7   8    2.19    1.05
   2  -8   9    3.42    1.08
  -2   8   8    2.45    1.06
   2  -8   8    2.84    1.58
  -2   8   7    1.71    1.25
   2  -8   7    5.59    2.14
  -2   8   6    7.62    1.31
   2  -8   6    4.85    2.36
   2   8  -6   12.82    2.47
   2  -8   6    8.92    3.41
  -2   8   6    7.13    1.46
   2  -8   6    5.89    3.29
   2  -8   5   16.00    3.35
  -2   8   5   14.70    1.56
  -2   8   5   13.07    1.56
   2   8  -5   12.87    2.29
   2  -8   5   16.96    3.52
  -2   8   4   13.12    1.48
   2   8  -4   12.52    2.15
   2   8  -3    5.20    1.73
   2   8  -2  146.17    7.47
   2   8  -1  401.29   19.34
   2   8   0    2.27    1.48
   2   8   0    2.39    0.93
   2   8   1  409.87   19.79
   2   8   2  150.44    7.41
   2   8   2  135.13    7.09
   2   8   3    4.29    1.51
   2   8   3    5.24    1.43
   2   8   3    4.87    2.24
  -2  -8   4   13.02    2.90
   2   8   4   11.97    1.35
   2   8   4   13.57    1.58
   2   8   4   11.32    2.62
   2   8   4   13.10    1.75
   2   8   5   12.02    1.43
  -2  -8   5    9.41    1.84
   2   8   5   11.43    1.80
   2   8   6    4.39    1.33
  -2  -8   6    8.78    3.26
   2   8   6    6.45    1.36
   2   8   6    6.51    1.89
   2   8   7    2.09    1.25
   2   8   8    2.23    1.01
   2  -9   9    2.65    0.98
   2  -9   8    5.46    1.64
  -2   9   8    2.47    1.01
   2  -9   7    5.82    2.15
  -2   9   7    2.11    1.26
  -2   9   6    3.94    1.40
  -2   9   6    3.34    1.21
   2  -9   6    2.70    3.26
   2  -9   6    0.76    2.15
   2  -9   6    3.05    3.27
   2   9  -6    5.47    2.12
  -2   9   5    3.77    1.36
   2   9  -5    3.00    2.05
   2  -9   5    0.43    3.15
  -2   9   5    3.56    1.28
   2  -9   5    4.01    3.24
  -2   9   4    7.06    1.38
   2   9  -4    7.14    1.95
   2   9  -3    8.33    1.81
   2   9  -2  138.05    7.19
   2   9  -1    5.65    1.54
   2   9   0    8.14    1.16
   2   9   0    9.08    1.72
   2   9   1    7.55    1.76
   2   9   2  123.13    6.66
   2   9   2  143.10    7.05
   2   9   3    9.26    1.60
   2   9   3   10.17    2.32
   2   9   3    8.38    1.48
   2   9   4    5.77    1.22
   2   9   4    5.54    2.55
   2   9   4    4.69    1.54
   2   9   4    5.24    1.44
  -2  -9   4    3.96    2.76
   2   9   5    3.71    1.32
   2   9   5    3.18    1.59
  -2  -9   5    3.81    2.86
  -2  -9   5    2.73    1.77
   2   9   6    3.81    1.36
   2   9   6    4.38    1.35
   2   9   6    5.06    1.76
  -2  -9   6    1.12    2.97
   2   9   7    2.11    1.19
   2   9   8    2.96    0.99
  -2   9  -9    0.60    0.74
   2 -10   9   23.31    1.43
  -2  10   8    2.43    0.94
   2 -10   8    3.72    1.51
  -2  10   7    0.54    1.15
   2 -10   7    4.43    2.08
  -2  10   6    2.47    1.32
  -2  10   6    2.62    1.16
   2 -10   6    6.32    3.31
   2 -10   6    0.86    2.31
   2 -10   6    4.32    3.37
  -2  10   6    1.71    1.23
   2  10  -6    4.60    2.07
  -2  10   5   88.49    4.54
   2  10  -5   78.18    5.04
  -2  10   5   86.13    4.37
  -2  10   5   74.66    4.22
   2 -10   5   96.17    6.14
  -2  10   4    2.10    1.33
  -2  10   4    3.06    1.16
   2  10  -4    4.44    1.94
  -2  10   3   63.28    3.35
   2  10  -3   61.29    3.96
   2  10  -2   11.86    1.78
   2  10  -1   19.64    1.53
   2  10  -1   22.74    2.02
   2  10   0    6.99    1.15
   2  10   0    5.82    1.55
   2  10   1   25.81    2.50
   2  10   2   12.69    2.31
   2  10   3   70.63    4.31
   2  10   3   59.38    3.66
   2  10   3   57.28    3.47
   2  10   3   66.83    3.62
   2  10   4    4.95    1.26
   2  10   4    0.57    1.46
   2  10   4    1.57    1.38
   2  10   4    5.97    2.52
  -2 -10   4    4.69    2.75
   2  10   5   82.50    4.31
   2  10   5   81.45    4.09
  -2 -10   5   80.12    5.42
   2  10   5   74.94    4.54
   2  10   6    0.80    1.58
   2  10   6    1.98    1.29
   2  10   6    2.64    1.34
   2  10   7    1.28    1.13
   2  10   7    1.53    1.16
  -2  10  -9   15.64    1.03
   2 -11   8    3.27    1.39
  -2  11   7    4.48    1.16
   2 -11   7    5.70    2.02
  -2  11   6   28.95    2.13
   2 -11   6   33.62    2.98
  -2  11   6   26.38    1.90
  -2  11   6   29.88    2.05
   2  11  -5   42.84    3.52
  -2  11   5   44.15    2.66
  -2  11   5   49.32    2.95
   2 -11   5   49.14    4.60
  -2  11   4    7.37    1.31
   2  11  -4    6.22    2.04
  -2  11   3    3.53    1.29
   2  11  -3    7.21    1.94
  -2  11   3    4.74    1.17
  -2  11   3    3.85    1.25
  -2  11   3    5.11    1.51
   2  11  -2   56.44    3.59
   2  11  -1   16.49    2.06
   2  11  -1   19.29    1.56
   2  11   0   12.17    1.94
   2  11   0   15.42    1.41
   2  11   1   19.64    2.36
   2  11   2   64.19    3.45
   2  11   2   59.33    4.08
   2  11   2   56.75    3.10
  -2  11  -2   54.95    3.08
   2  11   2   55.59    3.28
   2  11   3    4.70    2.38
   2  11   3    3.25    1.24
   2  11   3    1.22    1.35
   2  11   3    4.29    1.63
   2  11   4    6.11    1.58
   2  11   4    8.94    2.72
   2  11   4   10.04    1.40
   2  11   4    7.08    1.40
  -2 -11   4    7.41    2.81
   2  11   5   41.67    3.20
   2  11   5   49.49    2.76
   2  11   5   47.48    3.01
   2  11   5   52.01    2.83
   2  11   6   20.76    1.78
   2  11   6   23.05    1.96
   2  11   6   23.30    1.83
   2  11   7    4.36    1.15
   2  12  -8    3.28    0.85
   2 -12   8    3.60    1.21
  -2  12   7   17.83    1.47
   2 -12   7   20.31    2.23
  -2  12   6   41.38    2.58
  -2  12   6   44.13    2.68
   2 -12   6   45.17    3.39
   2 -12   5   46.95    4.48
  -2  12   5   40.63    2.54
  -2  12   5   44.60    2.80
   2  12  -5   45.43    3.38
   2  12  -4   11.85    2.22
  -2  12   4   10.10    1.43
  -2  12   4   10.23    1.48
  -2  12   3    9.44    1.52
  -2  12   3   11.86    1.48
   2  12  -3   13.32    2.07
  -2  12   3   13.50    1.37
  -2  12   3    9.68    1.76
  -2  12   2    7.25    1.35
  -2  12   2    6.69    1.39
  -2  12   2    8.70    1.16
   2  12  -2    8.91    1.90
   2  12  -2    8.84    1.32
   2  12  -2    8.86    1.15
  -2  12   2    7.04    1.49
  -2  12   1   17.61    1.57
  -2  12   1   13.64    1.50
   2  12  -1   18.78    2.06
   2  12  -1   13.72    1.45
   2  12   0    9.35    1.31
   2  12   0    7.29    1.82
  -2  12  -1   15.00    1.37
   2  12   1   13.00    1.52
   2  12   1   18.22    2.36
   2  12   2    9.33    2.42
   2  12   2    8.82    1.47
   2  12   2   11.09    1.78
  -2  12  -2    7.57    1.18
  -2  12  -2    7.95    1.18
   2  12   3   15.21    2.78
   2  12   3   10.29    1.51
   2  12   3   13.45    2.00
   2  12   3   13.59    1.66
   2  12   4   11.73    2.96
   2  12   4    8.40    1.46
   2  12   5   42.42    2.80
   2  12   5   44.99    2.62
   2  12   5   40.02    3.02
   2  12   5   48.77    2.69
   2  12   6   39.32    2.58
   2  12   6   39.70    2.45
   2  12   6   42.44    2.51
  -2  12  -8    2.84    0.90
   2  13  -8   -0.05    0.63
   2 -13   8    2.82    0.98
   2 -13   7   23.21    2.13
   2  13  -7   19.09    1.51
   2  13  -7   19.07    1.50
   2 -13   6   12.86    2.26
  -2  13   6   10.78    1.37
  -2  13   5   93.00    4.80
   2  13  -5   80.47    5.23
  -2  13   5   88.83    4.57
   2  13  -4    1.38    1.91
  -2  13   4    2.17    1.32
  -2  13   4    1.57    1.23
  -2  13   4    2.63    1.36
  -2  13   3   14.48    1.97
   2  13  -3   13.63    1.42
  -2  13   3   11.46    1.63
  -2  13   3   15.23    1.46
   2  13  -3   11.43    2.14
   2  13  -3   15.82    1.59
  -2  13   3   13.96    1.62
   2  13  -2   21.48    1.71
  -2  13   2   23.91    1.97
  -2  13   2   23.42    2.05
   2  13  -2   25.70    1.84
   2  13  -2   24.62    2.51
  -2  13   2   23.07    1.94
   2  13  -1    4.36    1.83
   2  13  -1    6.31    1.32
  -2  13   1    7.34    1.38
   2  13  -1    6.23    1.13
  -2  13   1    6.06    1.28
   2  13   0    1.66    1.31
   2  13   0    1.00    1.92
   2  13   0    2.44    1.11
  -2  13   0    2.30    1.23
   2  13   1    6.75    2.26
  -2  13  -1    8.27    1.26
   2  13   1    6.87    1.27
   2  13   1    5.36    1.39
   2  13   2   20.59    2.90
  -2  13  -2   21.50    1.75
   2  13   2   24.14    2.18
   2  13   2   21.73    1.98
  -2  13  -2   22.58    1.77
   2  13   3   14.55    1.63
   2  13   3   17.61    2.96
  -2  13  -3   13.62    1.50
   2  13   3   15.32    2.13
   2  13   4    0.60    2.65
  -2  13  -4    1.74    1.29
   2  13   4    1.08    1.38
   2  13   4    1.80    1.36
   2  13   5   94.80    5.06
   2  13   5   93.65    4.86
   2  13   6    6.84    1.29
   2  13   6    9.95    1.34
   2 -14   8    3.60    0.73
   2  14  -7    6.94    1.02
   2  14  -7    8.00    1.01
   2 -14   6    4.92    2.09
   2  14  -6    5.81    1.22
  -2  14   6    5.58    1.12
   2  14  -6    6.15    1.13
   2  14  -5    2.83    1.31
  -2  14   5    4.18    1.30
  -2  14   5    5.31    1.25
   2  14  -5    3.76    1.19
  -2  14   4    2.26    1.31
  -2  14   4    2.21    1.24
  -2  14   4    2.24    1.40
   2  14  -4    3.20    1.94
   2  14  -4    0.99    1.35
   2  14  -4    2.01    1.14
  -2  14   3    2.47    1.34
   2  14  -3    3.73    1.95
  -2  14   3    3.30    1.71
   2  14  -3    3.12    1.20
  -2  14   3    4.37    1.52
   2  14  -3    4.19    1.35
  -2  14   2   20.97    2.12
   2  14  -2   22.27    1.71
  -2  14   2   20.09    1.91
   2  14  -2   19.62    2.52
   2  14  -2   25.15    1.93
  -2  14   1    8.80    1.42
   2  14  -1   11.42    2.18
  -2  14   1   11.20    1.66
   2  14  -1   12.88    1.40
   2  14  -1   12.35    1.59
   2  14   0   13.76    2.33
  -2  14   0   13.44    1.60
   2  14   0   11.04    1.43
   2  14   1   12.02    2.44
  -2  14  -1   11.82    1.48
   2  14   1   10.99    1.43
   2  14   2   26.14    3.22
  -2  14  -2   23.13    1.91
   2  14   2   25.19    2.38
  -2  14  -2   25.49    1.92
   2  14   3    3.19    1.48
   2  14   3    7.03    2.81
  -2  14  -3    5.27    1.37
   2  14   3    4.61    1.96
   2  14   4    3.81    2.69
  -2  14  -4    0.06    1.24
   2  14   4    2.95    1.39
   2  14   4    2.43    1.41
  -2  14  -5    5.41    1.35
   2  14   5    5.29    1.39
  -2  14  -6    5.68    1.26
   2  14   6    5.75    1.15
   2  14   6    7.89    1.24
  -2  14  -7    7.15    1.00
   2 -15   7   16.24    1.55
   2  15  -6    4.91    1.09
   2  15  -6    5.23    1.01
  -2  15   6    3.39    0.98
   2 -15   6    1.94    1.88
   2  15  -5    1.27    1.09
   2  15  -5    1.57    1.22
   2  15  -4    0.61    1.24
  -2  15   4    2.73    1.29
   2  15  -4    1.14    1.13
   2  15  -3    4.15    1.98
   2  15  -3    3.65    1.33
  -2  15   3    1.80    1.33
   2  15  -3    3.62    1.17
  -2  15   3    2.92    1.62
  -2  15   2    9.08    1.52
   2  15  -2   10.72    2.12
   2  15  -2    7.73    1.34
   2  15  -2    9.14    1.35
  -2  15   2   10.36    1.76
   2  15  -2   11.46    1.56
   2  15  -1  264.54   13.45
  -2  15   1  244.09   12.88
   2  15  -1  259.29   12.81
   2  15  -1  292.20   12.87
  -2  15   1  259.31   12.87
   2  15   0   11.61    1.51
  -2  15   0   11.74    1.69
   2  15   0   14.38    2.48
   2  15   1  244.29   12.35
  -2  15  -1  253.47   12.43
   2  15   1  257.92   13.16
  -2  15  -1  250.83   12.48
   2  15   1  269.63   12.49
   2  15   2    6.57    1.52
   2  15   2   11.93    2.06
   2  15   2   14.48    2.87
  -2  15  -2   10.22    1.45
  -2  15  -2   12.37    1.51
   2  15   3    2.35    1.36
   2  15   3    4.44    1.56
   2  15   3    4.22    2.72
  -2  15  -3    2.55    1.26
   2  15   3    2.73    1.92
  -2  15  -4    2.21    1.29
   2  15   4    2.50    1.34
   2  15   4    1.88    1.42
  -2  15  -5    2.15    1.24
   2  15   5    2.17    1.28
  -2  15  -6    3.11    1.10
   2  15   6    4.13    0.99
  -2  15  -7    6.76    0.91
   2 -16   7    7.66    0.99
   2  16  -6    2.56    0.93
  -2  16   6    4.01    0.86
   2 -16   6    4.31    1.67
   2  16  -5    1.81    1.12
   2  16  -5    2.45    1.00
   2  16  -4    1.97    1.26
   2  16  -4    2.28    1.08
  -2  16   4    1.19    1.18
   2  16  -3    1.94    1.37
   2  16  -3    0.58    1.13
  -2  16   3    1.62    1.25
   2  16  -2   12.56    2.31
  -2  16   2   10.67    1.53
   2  16  -2   11.31    1.46
   2  16  -2   11.18    1.65
  -2  16   2   13.56    1.79
   2  16  -2   11.56    1.43
   2  16  -1   41.29    3.53
  -2  16   1   44.75    2.67
  -2  16   1   45.21    2.83
   2  16  -1   40.83    2.65
   2  16   0    6.78    2.51
   2  16   0    7.82    1.38
  -2  16   0    7.81    1.58
   2  16   1   46.96    2.85
  -2  16  -1   47.55    2.90
   2  16   1   39.00    3.82
  -2  16  -1   46.34    2.91
   2  16   2    9.28    1.59
   2  16   2   11.87    1.94
  -2  16  -2   13.85    1.61
  -2  16  -2   12.21    1.47
   2  16   2   12.13    2.75
   2  16   3    1.58    1.89
  -2  16  -3    0.42    1.26
   2  16   3    0.69    1.29
  -2  16  -4   -0.50    1.16
   2  16   4   -0.30    1.19
  -2  16  -5    2.03    1.12
  -2  16  -6    3.27    0.96
   2  16   6    4.80    0.89
  -2  16  -7    3.01    0.68
   2 -17   6    0.48    1.27
   2  17  -5    0.74    0.99
  -2  17   5    0.98    0.92
   2  17  -4    3.79    1.19
  -2  17   4    1.38    1.08
  -2  17   4    0.70    1.05
   2  17  -3   13.53    1.40
   2  17  -3   10.98    1.52
  -2  17   3   10.33    1.41
  -2  17   2    2.79    1.23
   2  17  -2    3.10    1.16
  -2  17   2    4.14    1.51
   2  17  -2    3.31    1.26
  -2  17   1   27.60    2.14
   2  17  -1   21.65    1.85
  -2  17   1   24.64    1.81
  -2  17   0   33.38    2.51
  -2  17   0   37.29    2.60
  -2  17  -1   25.76    2.08
   2  17   1   21.89    1.90
   2  17   1   26.64    2.36
  -2  17  -1   27.03    2.05
  -2  17  -2    2.40    1.40
   2  17   2    6.23    1.86
  -2  17  -2    4.40    1.24
   2  17   2    2.17    1.29
   2  17   3   10.95    2.02
  -2  17  -3   12.99    1.49
   2  17   3   11.68    1.51
   2  17   4    2.58    1.12
  -2  17  -4    3.41    1.18
   2  17   5    2.59    0.96
  -2  17  -5    0.29    0.98
   2  17   6    1.40    0.67
  -2  17  -6    2.23    0.78
   2 -18   6    4.48    0.97
  -2  18   5    2.55    0.80
   2  18  -5    3.08    0.87
  -2  18   4    0.54    0.95
   2  18  -4    0.10    1.05
  -2  18   4    2.25    0.98
  -2  18   3    4.01    1.22
  -2  18   3    7.09    1.18
   2  18  -2    4.58    1.11
  -2  18   2    4.24    1.16
   2  18  -1   25.03    1.88
  -2  18   1   20.38    1.96
  -2  18   1   24.20    1.71
  -2  18   0    4.16    1.43
  -2  18   0    7.08    1.48
  -2  18  -1   21.68    1.92
   2  18   1   21.60    1.72
  -2  18  -1   23.85    1.92
   2  18   1   26.20    2.25
  -2  18  -2    2.38    1.32
  -2  18  -2    3.99    1.20
   2  18   2    6.19    1.78
   2  18   2    6.35    1.24
  -2  18  -3    6.22    1.32
   2  18   3    3.58    1.71
   2  18   3    5.57    1.22
  -2  18  -4    0.74    1.07
   2  18   4    0.60    0.96
  -2  18  -5    2.63    0.91
   2  18   5    3.40    0.84
   2 -19   5   -0.85    1.16
  -2  19   4    1.34    0.82
  -2  19   4    1.79    0.83
  -2  19   3    2.62    0.94
  -2  19   3    3.72    1.07
  -2  19   2    6.91    1.06
   2  19  -2    5.94    1.02
  -2  19   1    1.76    1.20
   2  19  -1    2.77    1.14
   2  19   0    2.85    1.21
  -2  19   0    2.76    1.30
   2  19   0    4.98    1.55
  -2  19  -1    3.91    1.20
   2  19   1    4.74    1.64
   2  19   1    3.35    0.94
  -2  19  -2    7.87    1.12
   2  19   2    6.50    1.60
   2  19   2    6.67    1.09
   2  19   3    4.09    0.99
   2  19   4    2.00    0.86
   2  19   4    2.36    0.86
   2  19   5    2.43    0.63
  -2  20   3    2.52    0.91
  -2  20   1    1.93    1.10
   2  20  -1    2.40    0.96
   2  20  -1    3.99    1.36
   2  20   0    5.28    1.16
  -2  20   0    6.78    1.20
   2  20   0    6.36    1.45
   2  20   1    0.96    1.06
  -2  20  -1    3.72    1.05
   2  20   1    2.03    1.39
  -2  20  -2    2.02    0.82
   2  20   2    1.82    1.00
   2  20   2    1.02    1.32
   2  20   2    0.91    0.76
   2  20   3    3.14    0.78
   2  20   4    6.17    0.78
   2  20   4    7.52    0.77
   2 -21   4    1.51    0.70
  -2  21   3    1.35    0.65
  -2  21   2    0.49    0.81
  -2  21   1    2.66    0.93
   2  21  -1    2.37    0.75
   2  21  -1    4.30    1.11
  -2  21   0    5.95    1.00
   2  21   0    5.22    0.95
   2  21   0    8.08    1.23
   2  21   1    1.78    0.89
  -2  21  -1    2.32    0.80
   2  21   1    1.80    1.17
   2  21   2    0.17    0.82
  -2  22   2    0.37    0.55
  -2  22   1    1.22    0.67
   2  22   0    1.98    0.60
  -2  22   0    3.73    0.68
  -2  22  -1    0.76    0.47
   2  22   1    1.07    0.61
   2  22   2    0.98    0.55
  -3   0   0   18.23    1.03
  -3   0   1    5.20    1.14
   3   0   1    4.74    1.05
  -3   0   1    5.88    0.96
  -3   0   1    4.86    1.17
   3   0   2    1.59    1.70
  -3   0   2    0.02    1.20
  -3   0   2    0.20    2.01
   3   0   3    3.59    1.86
  -3   0   3    2.33    2.00
  -3   0   3    1.89    1.32
   3   0   4    4.68    2.05
  -3   0   4    0.92    1.38
  -3   0   4    1.79    2.28
   3   0   5    0.06    2.17
  -3   0   5    1.22    2.39
  -3   0   6    2.56    1.48
   3   0   6    4.58    1.59
   3   0   6    5.23    2.59
  -3   0   6    5.06    1.47
  -3   0   6    2.28    1.27
  -3   0   6    6.10    2.64
  -3   0   7    3.12    1.32
  -3   0   7    0.22    1.39
   3   0   7   -1.66    2.56
   3   0   7   -2.40    1.80
   3   0   8    3.10    1.66
  -3   0   8    4.72    1.20
   3   0   9    1.09    1.22
   3  -1   9    9.12    1.36
   3  -1   8   26.92    2.18
  -3   1   8   20.82    1.74
  -3   1   7   24.88    1.94
  -3   1   7   21.04    1.94
   3  -1   7   24.86    3.32
   3  -1   7   25.03    2.33
  -3   1   6    1.64    1.28
  -3   1   6    2.42    1.42
   3  -1   6    1.86    2.45
   3  -1   6    1.35    1.65
  -3   1   5    5.91    2.36
   3  -1   5    4.16    2.39
  -3   1   4    4.04    2.28
   3  -1   4    9.84    2.38
  -3   1   3    6.36    1.41
   3  -1   3    5.31    0.93
  -3   1   3    7.47    2.13
   3  -1   3    8.55    2.05
   3  -1   2   52.79    2.83
  -3   1   2   60.61    3.18
  -3   1   2   60.85    3.57
  -3   1   1   79.71    3.92
  -3   1   1   76.42    3.89
  -3   1   1   74.30    3.91
  -3   1   0   23.50    1.33
   3   1   0   27.86    1.31
   3   1   1   72.45    3.50
   3   1   1   75.82    3.55
  -3  -1   2   64.99    3.41
   3   1   2   58.96    3.80
   3   1   3    9.46    1.90
  -3  -1   3    6.06    2.18
  -3  -1   3    8.77    1.46
   3   1   4    9.10    2.15
  -3  -1   4    4.91    1.39
  -3  -1   4    5.04    2.47
   3   1   5    4.14    2.23
  -3  -1   5    1.77    2.43
   3   1   6    1.42    1.56
   3   1   6    3.61    2.36
  -3  -1   6    3.03    1.46
  -3  -1   6    1.55    1.26
  -3  -1   6    1.37    2.66
   3   1   7   18.98    2.97
   3   1   7   21.90    2.13
  -3  -1   7   23.35    1.85
  -3  -1   7   21.79    1.93
   3   1   7   24.33    3.44
  -3  -1   8   18.18    1.56
   3   1   8   21.63    1.96
   3   1   9   10.24    1.35
   3  -2   9    2.84    1.25
  -3   2   8    0.88    1.19
   3  -2   8    1.27    1.69
   3  -2   7   29.16    2.56
  -3   2   7   31.44    2.24
   3  -2   7   34.74    3.71
   3  -2   7   40.15    4.15
   3  -2   6   14.82    1.99
  -3   2   6   16.26    1.63
   3  -2   6   17.92    2.90
   3  -2   6   13.01    3.16
  -3   2   6   15.19    1.68
   3  -2   5   15.81    2.91
   3  -2   5   21.48    2.79
   3  -2   4   74.35    4.67
  -3   2   4   75.76    4.43
   3  -2   4   67.35    3.65
   3  -2   4   70.47    4.51
   3  -2   3   16.97    1.27
  -3   2   3   17.22    2.24
   3  -2   3   16.48    2.26
  -3   2   1 3731.89  176.01
  -3   2   1 3738.47  176.04
   3   2   0   81.07    3.75
  -3   2   0   71.94    3.74
   3   2   1 3713.30  176.77
  -3  -2   1 3822.36  176.78
   3   2   1 3655.52  176.77
   3   2   1 3814.60  176.77
  -3  -2   2  189.31    8.98
   3   2   2  183.42    8.94
   3   2   2  172.30    8.85
   3   2   2  176.76    8.86
   3   2   3   16.86    1.92
  -3  -2   3   15.96    1.63
  -3  -2   3   16.94    2.44
   3   2   3   16.25    2.35
   3   2   4   72.10    4.35
  -3  -2   4   70.05    4.55
  -3  -2   4   69.64    3.97
   3   2   4   71.24    4.43
   3   2   5   16.31    2.44
  -3  -2   5   14.51    1.80
   3   2   5   14.11    2.71
  -3  -2   5   18.05    2.90
   3   2   6   16.37    1.83
   3   2   6   13.96    2.58
  -3  -2   6   15.60    1.75
  -3  -2   6   17.40    1.64
   3   2   6   17.07    2.95
  -3  -2   6   21.12    3.22
   3   2   7   30.75    3.13
   3   2   7   27.97    2.40
  -3  -2   7   32.06    2.24
  -3  -2   7   31.03    3.66
  -3  -2   7   34.09    2.17
   3   2   8    1.03    1.42
  -3   3   9    0.86    0.80
   3  -3   9    1.22    1.25
  -3   3   8    7.22    1.31
   3  -3   8    9.09    1.77
   3  -3   7  270.81   12.65
  -3   3   7  249.73   12.47
   3  -3   7  243.05   13.44
   3  -3   7  262.50   13.69
   3  -3   6    8.09    1.89
  -3   3   6    4.03    1.31
   3  -3   6    3.59    2.63
   3  -3   6    4.31    3.11
  -3   3   6    4.22    1.41
   3  -3   5    4.20    2.55
   3  -3   5    0.46    2.64
   3  -3   4   46.85    2.93
   3  -3   4   61.65    4.13
   3   3   0   34.06    2.02
  -3   3   0   36.81    2.06
   3   3   1    6.21    1.46
   3   3   1    4.14    1.23
   3   3   2   25.89    2.33
  -3  -3   2   22.32    2.48
   3   3   2   25.19    2.10
   3   3   2   26.63    2.04
   3   3   3  135.65    6.42
  -3  -3   3  123.21    6.67
   3   3   3  129.69    6.58
  -3  -3   4   63.72    4.41
  -3  -3   4   56.25    3.70
   3   3   4   67.83    4.30
   3   3   5    0.79    1.91
  -3  -3   5    1.75    2.60
   3   3   5    3.64    2.38
  -3  -3   5    0.91    1.43
   3   3   6    3.38    1.25
   3   3   6    4.62    2.09
   3   3   6    2.82    1.45
  -3  -3   6    4.07    1.44
  -3  -3   6    2.96    1.23
  -3  -3   6    3.65    2.85
   3   3   6    2.86    2.41
   3   3   7  225.45   12.28
   3   3   7  242.26   11.57
  -3  -3   7  211.75   11.56
  -3  -3   7  247.06   12.72
   3   3   8    6.79    1.53
  -3   4   9    0.52    0.80
   3  -4   9   -0.89    1.23
  -3   4   8    4.01    1.26
   3  -4   8    4.43    1.78
   3  -4   7   17.12    2.12
   3  -4   7   19.14    3.25
   3  -4   7   15.29    3.49
  -3   4   7   14.05    1.67
   3  -4   6   45.22    4.00
   3  -4   6   35.15    2.85
  -3   4   6   37.88    2.50
  -3   4   6   40.51    2.48
   3  -4   6   40.33    4.18
   3  -4   5    4.07    2.55
   3  -4   5    3.92    1.70
  -3   4   5    5.57    1.28
   3  -4   5    5.32    2.85
  -3   4   5    4.59    1.18
  -3   4   5    5.73    1.34
   3  -4   4   80.30    4.42
   3  -4   4  107.43    5.39
   3   4  -1  295.75   14.22
   3   4   0  152.54    7.43
  -3   4   0  151.73    7.44
  -3   4  -1  286.24   13.63
   3   4   1  281.21   13.59
   3   4   1  283.63   13.64
   3   4   2   42.88    2.71
   3   4   2   39.29    2.52
   3   4   3    5.93    1.95
  -3  -4   3    4.46    2.39
   3   4   3    4.85    2.02
   3   4   3    5.41    1.58
   3   4   4   93.79    5.53
  -3  -4   4   96.98    5.24
  -3  -4   4  107.84    5.86
   3   4   4   96.94    5.31
   3   4   5    4.09    1.30
   3   4   5    8.15    1.92
  -3  -4   5    6.27    2.68
  -3  -4   5    4.45    1.52
   3   4   5    6.03    2.27
   3   4   6   38.26    2.35
   3   4   6   33.08    2.42
   3   4   6   41.85    3.18
  -3  -4   6   32.91    2.67
  -3  -4   6   44.60    4.02
   3   4   7   15.99    1.57
   3   4   7   15.26    2.47
  -3  -4   7   19.21    3.35
   3   4   7   13.52    1.72
  -3   5   9    3.59    0.82
   3  -5   9    2.72    1.25
  -3   5   8    5.62    1.26
   3  -5   8    5.61    1.75
   3  -5   7    7.56    3.34
   3  -5   7   13.37    2.10
  -3   5   7    6.87    1.49
   3  -5   7    9.20    3.08
   3  -5   6   25.26    2.52
   3  -5   6   29.02    3.91
  -3   5   6   20.76    1.97
   3  -5   6   30.43    3.66
   3  -5   5   39.01    2.82
  -3   5   5   37.40    2.42
   3  -5   5   39.68    4.10
   3  -5   5   45.55    3.79
   3  -5   4   17.09    1.49
  -3   5   3  605.27   28.78
   3   5  -1   23.09    1.82
   3   5   0   43.41    2.58
   3   5   1   23.75    1.90
   3   5   1   20.86    1.73
   3   5   2  130.98    6.64
   3   5   2  126.32    6.50
  -3  -5   3  504.74   27.13
   3   5   3  586.04   26.98
   3   5   3  583.49   27.13
   3   5   3  566.65   26.78
   3   5   4   28.33    2.28
  -3  -5   4   20.48    2.04
  -3  -5   4   21.93    2.93
   3   5   5   36.80    2.25
  -3  -5   5   40.30    3.82
   3   5   5   40.13    2.94
   3   5   5   39.28    2.34
   3   5   6   19.47    1.66
   3   5   6   17.09    2.38
   3   5   6   21.72    1.82
  -3  -5   6   22.99    3.44
   3   5   7    9.45    1.59
   3   5   7    8.33    2.17
   3   5   7    7.52    1.37
  -3  -5   7    9.31    3.13
   3   5   8    6.38    1.12
  -3   6   9    3.83    0.78
   3  -6   9    2.83    1.20
  -3   6   8    7.10    1.24
   3  -6   8    6.60    1.72
  -3   6   7   15.56    1.69
   3  -6   7   20.30    2.27
   3  -6   7   13.07    3.49
   3  -6   7   16.49    3.30
  -3   6   6   35.05    2.25
  -3   6   6   37.59    2.45
   3  -6   6   34.59    2.96
   3  -6   6   45.81    4.32
   3  -6   6   46.45    4.48
   3  -6   5   25.44    3.52
  -3   6   5   21.29    1.77
  -3   6   5   22.14    1.67
   3  -6   5   26.86    3.34
   3   6  -2   71.03    4.09
  -3   6   2   73.59    3.80
   3   6  -1   11.74    1.58
   3   6   0    3.23    1.36
   3   6   1   13.82    1.43
   3   6   1   12.80    1.71
   3   6   2   75.37    4.27
   3   6   2   73.55    4.01
  -3  -6   3   84.53    5.06
   3   6   3   78.02    4.51
   3   6   3   86.16    4.87
   3   6   3   83.46    4.36
   3   6   4   47.74    3.02
  -3  -6   4   46.64    3.77
  -3  -6   4   41.66    2.93
   3   6   5   19.62    1.73
  -3  -6   5   21.47    2.21
  -3  -6   5   25.11    3.38
   3   6   5   23.68    1.72
   3   6   5   23.94    2.31
   3   6   5   24.53    1.82
   3   6   6   31.74    2.24
   3   6   6   35.30    2.23
   3   6   6   33.58    2.18
   3   6   6   36.17    2.94
  -3  -6   6   27.62    2.61
   3   6   7   14.99    2.25
   3   6   7   14.27    1.52
  -3  -6   7   18.42    3.31
   3   6   8    4.21    1.07
   3  -7   9    7.58    1.22
  -3   7   9    7.15    0.84
   3  -7   8    5.29    1.63
  -3   7   8    0.78    1.09
  -3   7   7    3.97    1.38
  -3   7   7    3.15    1.83
   3  -7   7    5.73    3.09
   3  -7   7    9.09    2.17
   3  -7   6   14.72    2.44
  -3   7   6   14.55    1.71
  -3   7   6   17.83    1.52
   3  -7   6   16.04    3.73
   3  -7   6   17.08    3.59
  -3   7   5   10.86    1.43
   3  -7   5   10.56    3.20
   3  -7   5    7.81    3.31
  -3   7   5   10.59    1.36
   3   7  -2  136.49    7.53
  -3   7   2  156.04    7.35
   3   7  -1   70.23    3.89
   3   7   0   48.33    2.94
   3   7   1   71.76    3.78
   3   7   1   61.67    3.57
   3   7   2  139.43    7.17
   3   7   2  131.74    6.90
   3   7   2  137.30    6.74
   3   7   3   59.42    3.73
   3   7   3   48.82    3.17
   3   7   3   53.82    3.08
  -3  -7   4   14.98    2.79
   3   7   4   14.65    1.89
   3   7   5    9.33    1.85
   3   7   5    7.30    1.30
  -3  -7   5    8.37    1.80
  -3  -7   5    8.08    2.96
   3   7   5   10.43    1.50
   3   7   6   15.55    1.60
  -3  -7   6   19.90    3.49
   3   7   6   13.65    1.57
   3   7   6   14.37    2.21
   3   7   7    0.07    1.76
  -3  -7   7    4.66    2.98
   3   7   7    3.05    1.23
   3   7   8    1.62    1.01
  -3   8   9    2.48    0.67
   3  -8   9    0.70    1.06
  -3   8   8    3.50    1.08
   3  -8   8    5.15    1.62
  -3   8   7    1.40    1.25
   3  -8   7    3.47    2.11
  -3   8   6    7.80    1.29
   3  -8   6    7.76    2.36
   3  -8   6   15.52    3.59
   3  -8   6    9.64    3.32
  -3   8   6    7.02    1.51
   3   8  -6   12.88    2.42
  -3   8   5    2.75    1.23
   3  -8   5    2.54    3.19
   3  -8   5    2.32    3.01
  -3   8   5    2.23    1.28
   3   8  -5    3.65    1.92
  -3   8   4    5.24    1.23
   3   8  -4    5.48    1.95
   3   8  -3    2.79    1.64
   3   8  -2   11.77    1.72
  -3   8   2   14.55    1.65
   3   8  -1  529.51   25.37
  -3   8   0   84.38    4.40
   3   8   0   90.24    4.41
   3   8   0   93.13    4.77
   3   8   1  540.20   25.92
   3   8   2   15.04    1.48
   3   8   2   13.25    2.11
   3   8   2   10.47    1.58
   3   8   3    5.03    1.55
   3   8   3    5.73    2.23
   3   8   3    4.78    1.51
   3   8   4    5.11    1.39
   3   8   4    3.79    1.14
  -3  -8   4    5.49    2.67
  -3   8  -4    5.92    1.91
   3   8   4    3.68    2.44
   3   8   4    5.44    1.60
   3   8   5    2.68    1.22
   3   8   5    3.23    1.65
  -3  -8   5    1.34    1.66
  -3  -8   5    7.06    2.99
  -3   8  -5    6.87    2.09
   3   8   6   11.31    1.46
   3   8   6    9.77    1.94
  -3  -8   6   12.43    3.26
   3   8   6    8.41    1.43
  -3   8  -6   10.79    2.38
   3   8   7    2.32    1.21
   3   8   8    3.65    1.01
   3  -9   9    1.88    0.94
   3  -9   8    6.82    1.60
  -3   9   8    4.34    1.03
   3  -9   7    3.92    2.16
  -3   9   7    1.72    1.26
  -3   9   6    4.28    1.38
  -3   9   6    3.51    1.09
  -3   9   6    3.24    1.20
   3  -9   6    1.84    3.16
   3  -9   6    0.04    2.21
   3  -9   6    4.15    3.48
   3   9  -6    6.70    2.18
  -3   9   5    2.92    1.34
   3   9  -5   10.02    2.10
   3  -9   5    2.24    3.17
  -3   9   5    5.64    1.36
   3  -9   5    1.91    3.47
   3   9  -4    4.91    1.78
  -3   9   4    2.40    1.27
   3   9  -3   14.55    1.91
   3   9  -2   18.61    2.02
   3   9  -1   11.81    1.67
  -3   9   0   88.33    4.58
   3   9   0   93.77    4.60
   3   9   0   91.92    4.98
   3   9   1   10.90    1.82
  -3   9  -1   10.13    1.14
   3   9   2   22.86    1.78
   3   9   2   22.63    2.45
   3   9   3   14.02    1.72
   3   9   3   11.36    1.67
   3   9   3   15.29    2.42
   3   9   4    3.47    1.18
   3   9   4    3.21    1.51
  -3  -9   4    3.27    2.58
   3   9   4    3.79    1.43
   3   9   4    4.93    2.48
  -3   9  -4    3.19    1.86
  -3  -9   5    0.27    1.72
  -3   9  -5    4.17    2.12
   3   9   5    2.62    1.62
   3   9   5    5.03    1.29
  -3   9  -6    4.05    2.06
   3   9   6    2.95    1.26
   3   9   6    3.34    1.33
   3   9   6    2.19    1.72
   3   9   7    1.09    1.18
  -3   9  -9    1.93    0.76
   3 -10   9   24.01    1.43
  -3  10   8    3.62    0.97
   3 -10   8    5.18    1.48
  -3  10   7    2.12    1.19
   3 -10   7    5.72    2.03
   3 -10   6    0.33    3.27
   3 -10   6   -0.80    2.23
  -3  10   6    4.62    1.69
   3 -10   6    8.80    3.29
   3  10  -6    2.63    2.01
  -3  10   6    3.07    1.10
  -3  10   6    2.10    1.28
  -3  10   6    2.96    1.24
  -3  10   5   74.28    4.00
   3  10  -5   70.09    4.52
  -3  10   5   66.94    3.70
   3  10  -4    4.40    1.89
  -3  10   4    4.09    1.38
  -3  10   4    5.14    1.21
  -3  10   3   33.43    2.03
  -3  10   3   29.85    2.17
  -3  10   3   32.43    2.35
   3  10  -3   31.62    2.68
   3  10  -2   55.51    3.52
   3  10  -1    4.05    1.50
   3  10  -1    3.28    1.08
   3  10   0    9.96    1.71
   3  10   0    9.39    1.23
  -3  10   0    9.41    1.19
   3  10   1    2.93    1.83
  -3  10  -1    1.90    0.96
   3  10   2   59.64    4.04
   3  10   2   60.83    3.45
   3  10   3   35.62    2.37
   3  10   3   31.10    2.21
   3  10   3   35.98    3.04
   3  10   3   30.57    1.99
   3  10   4    6.58    1.26
   3  10   4    4.23    1.62
  -3 -10   4    4.68    2.66
   3  10   4    6.65    2.53
  -3  10  -4    6.40    1.98
   3  10   4    3.86    1.44
   3  10   5   73.42    4.33
  -3  10  -5   71.92    4.60
   3  10   5   79.05    3.89
   3  10   6    2.99    1.28
  -3  10  -6    0.87    1.94
  -3 -10   6    4.37    3.36
   3  10   6    2.45    1.59
   3  10   6    1.44    1.27
   3  10   7    1.86    1.14
   3  10   7    1.23    1.14
  -3  10  -9   14.37    0.97
   3 -11   8    2.33    1.34
  -3  11   8    1.90    0.85
   3 -11   7    4.82    1.96
  -3  11   7    4.89    1.16
  -3  11   6    6.77    1.35
  -3  11   6    5.71    1.37
   3 -11   6    3.34    2.27
  -3  11   5   10.24    1.55
   3 -11   5    3.74    3.36
   3  11  -5    5.42    2.08
  -3  11   5    5.90    1.29
   3  11  -4   20.33    2.43
  -3  11   4   19.10    1.63
  -3  11   4   20.54    1.69
  -3  11   3    8.36    1.44
  -3  11   3    8.40    1.29
  -3  11   3   10.69    1.28
   3  11  -3    9.32    1.94
  -3  11   3   11.44    1.70
  -3  11   2   19.79    1.73
   3  11  -2   19.88    2.19
   3  11  -1   12.46    1.33
   3  11  -1   11.66    1.91
   3  11   0    8.60    1.81
   3  11   0    9.13    1.20
  -3  11   0    7.57    1.18
   3  11   1   12.54    2.10
  -3  11  -1   12.11    1.32
   3  11   2   21.72    1.96
  -3  11  -2   21.06    1.54
   3  11   2   18.34    2.63
   3  11   2   16.30    1.75
   3  11   3    9.55    1.77
   3  11   3    9.74    1.53
   3  11   3    8.70    1.34
   3  11   3   12.66    2.58
   3  11   4   17.52    1.99
   3  11   4   16.88    1.65
   3  11   4   20.40    3.03
  -3  11  -4   19.06    2.41
   3  11   4   22.07    1.72
   3  11   4   16.65    1.89
   3  11   5    4.40    1.47
  -3 -11   5    6.04    2.09
   3  11   5    7.72    1.44
   3  11   5    7.41    1.70
  -3  11  -5   10.13    2.12
   3  11   6    5.74    1.31
   3  11   6    4.03    1.33
   3  11   6    2.88    1.41
   3  11   7    3.53    1.16
  -3  11  -8    0.38    0.96
   3 -12   8    5.32    1.22
   3  12  -8    2.50    0.79
  -3  12   7   17.59    1.46
   3 -12   7   19.24    2.17
   3 -12   6    4.92    2.17
  -3  12   6    3.37    1.24
  -3  12   5    9.45    1.35
  -3  12   5    9.62    1.77
   3 -12   5    6.93    3.42
   3  12  -5    8.25    2.07
  -3  12   5    9.53    1.52
  -3  12   4    1.77    1.22
  -3  12   4    1.10    1.25
   3  12  -4    3.17    1.97
  -3  12   3   34.49    2.35
  -3  12   3   33.80    2.11
  -3  12   3   33.38    2.49
   3  12  -3   34.24    2.89
  -3  12   3   29.86    2.13
  -3  12   2   15.84    1.76
  -3  12   2   14.79    1.58
   3  12  -2   15.21    1.34
   3  12  -2   14.37    2.14
  -3  12   2   16.12    1.37
   3  12  -2   14.59    1.52
  -3  12   2   14.77    1.57
   3  12  -1   12.54    1.91
  -3  12   1    9.24    1.36
  -3  12   1   11.11    1.44
   3  12  -1   10.99    1.37
  -3  12   0    2.19    1.14
   3  12   0    5.86    1.29
   3  12   0    6.67    1.82
   3  12   1    9.72    1.44
  -3  12  -1   10.91    1.25
   3  12   1   13.02    2.19
  -3  12  -1    8.87    1.30
  -3  12  -2   14.14    1.42
   3  12   2   15.11    2.61
  -3  12  -2   15.01    1.42
  -3  12  -2   14.16    1.47
   3  12   2   16.52    1.89
   3  12   2   14.93    1.67
  -3  12  -3   36.00    2.20
   3  12   3   33.43    2.39
   3  12   3   40.28    3.55
   3  12   3   29.95    2.22
   3  12   3   36.74    2.68
  -3  12  -3   31.31    2.84
   3  12   4    2.53    1.37
   3  12   4    1.29    1.32
   3  12   4    1.52    2.69
  -3  12  -4    2.50    1.96
  -3  12  -5    9.84    2.14
   3  12   5   10.34    1.47
   3  12   5   11.00    1.51
  -3 -12   5    7.64    2.12
   3  12   5    8.67    1.52
   3  12   6    4.34    1.27
   3  12   6    0.49    1.27
  -3  12  -8    3.18    0.90
   3  13  -8    0.79    0.66
   3 -13   8    2.20    0.99
   3 -13   7   14.80    1.87
   3  13  -7    9.44    1.25
   3  13  -7   12.17    1.20
   3 -13   6    5.91    2.08
  -3  13   6    3.88    1.17
  -3  13   5    9.75    1.38
  -3  13   5   10.31    1.51
   3  13  -4    7.48    2.03
  -3  13   4    4.32    1.39
  -3  13   4    3.69    1.25
  -3  13   4    4.08    1.39
  -3  13   3    7.06    1.45
  -3  13   3    7.96    1.23
  -3  13   3    5.12    1.42
   3  13  -3    3.78    1.41
   3  13  -3    4.26    1.93
  -3  13   3    8.70    1.88
   3  13  -3    4.00    1.16
  -3  13   2   30.62    2.40
   3  13  -2   32.61    2.04
  -3  13   2   29.55    2.26
   3  13  -2   32.01    2.79
   3  13  -2   33.78    2.21
  -3  13   1   23.77    1.92
  -3  13   1   27.14    2.06
   3  13  -1   24.92    1.74
   3  13  -1   23.08    2.47
   3  13  -1   27.09    1.92
   3  13   0    1.80    1.95
  -3  13   0   -0.20    1.23
   3  13   0    2.06    1.06
   3  13   0    3.13    1.21
   3  13   1   26.10    2.73
  -3  13  -1   24.37    1.83
   3  13   1   22.60    1.93
   3  13   2   33.69    3.25
  -3  13  -2   29.14    2.16
   3  13   2   38.86    2.52
   3  13   2   30.66    2.37
  -3  13  -2   34.47    2.16
  -3  13  -3    4.63    1.23
  -3  13  -3    4.08    1.93
   3  13   3    7.26    2.63
  -3  13  -3    3.01    1.38
   3  13   3    5.23    1.88
   3  13   3    4.06    1.42
   3  13   3    4.15    1.52
   3  13   4    3.83    2.70
  -3  13  -4    1.30    1.94
   3  13   4    2.07    1.39
  -3  13  -4    3.14    1.33
   3  13   5   13.22    1.57
   3  13   5   10.80    1.63
   3  13   6    5.63    1.29
   3  13   6    4.76    1.26
  -3  13  -7   10.12    1.19
  -3  13  -8    0.91    0.72
   3 -14   8    5.48    0.71
   3  14  -7   11.69    1.16
   3  14  -7   11.96    1.13
  -3  14   6    2.41    1.04
   3  14  -6    1.86    1.04
   3  14  -6    3.44    1.14
   3  14  -5    1.98    1.30
  -3  14   5    4.51    1.22
   3  14  -5    4.83    1.18
  -3  14   4    8.21    1.47
  -3  14   4    8.43    1.45
  -3  14   4    6.95    1.29
   3  14  -4    5.29    1.99
   3  14  -4    5.33    1.20
   3  14  -4    7.72    1.39
   3  14  -3   10.86    2.16
  -3  14   3    8.22    1.84
   3  14  -3    7.89    1.30
   3  14  -3    8.97    1.53
  -3  14   3    8.30    1.49
  -3  14   2   17.75    1.84
   3  14  -2   24.01    1.86
   3  14  -2   21.76    2.50
   3  14  -2   20.33    1.65
  -3  14   2   22.45    2.13
  -3  14   1   55.39    3.11
  -3  14   1   54.49    3.19
   3  14  -1   51.12    2.99
   3  14  -1   54.87    3.77
   3  14  -1   51.62    3.13
   3  14   0    3.17    1.17
  -3  14   0    5.48    1.43
   3  14   0    6.32    2.16
   3  14   1   52.73    3.98
  -3  14  -1   52.87    3.20
   3  14   1   53.69    3.19
  -3  14  -1   56.45    3.16
   3  14   2   25.44    3.11
  -3  14  -2   21.50    1.84
   3  14   2   28.45    2.36
  -3  14  -2   22.06    2.51
  -3  14  -2   21.33    1.89
   3  14   3    9.92    1.60
  -3  14  -3   10.55    1.43
   3  14   3   13.28    2.91
  -3  14  -3    8.85    2.10
  -3  14  -3    9.71    1.29
   3  14   3   11.29    2.12
   3  14   4    6.54    1.50
  -3  14  -4    8.66    1.46
   3  14   4    5.66    2.72
  -3  14  -4    6.14    2.00
  -3  14  -4    7.88    1.39
   3  14   4    7.44    1.46
  -3  14  -5    4.87    1.37
   3  14   5    4.65    1.35
   3  14   5    3.89    1.33
  -3  14  -6    1.53    1.14
   3  14   6    2.53    1.07
   3  14   6    2.30    1.18
  -3  14  -7   11.29    1.11
   3 -15   7    5.63    1.29
   3  15  -6    3.25    1.06
  -3  15   6    4.01    0.97
   3  15  -6    3.55    0.96
   3 -15   6    3.51    1.84
   3  15  -5    3.59    1.11
   3  15  -5    3.07    1.26
   3  15  -4    1.98    1.31
  -3  15   4    3.25    1.31
   3  15  -4    2.91    1.13
   3  15  -3   11.25    2.14
   3  15  -3   10.98    1.51
  -3  15   3    5.66    1.39
  -3  15   3    8.44    1.77
   3  15  -3    7.53    1.27
  -3  15   2    5.16    1.36
   3  15  -2    8.08    2.08
   3  15  -2    4.48    1.21
  -3  15   2    7.87    1.73
   3  15  -2    5.99    1.25
   3  15  -2    4.51    1.47
   3  15  -1  397.42   19.95
   3  15  -1  380.47   19.31
  -3  15   1  421.56   19.45
   3  15  -1  408.78   19.38
  -3  15   1  409.35   19.39
   3  15   0    7.05    1.31
  -3  15   0    8.73    1.64
   3  15   0    8.74    2.35
  -3  15  -1  386.58   20.72
   3  15   1  387.89   20.84
  -3  15  -1  432.73   20.31
  -3  15  -1  439.90   20.26
   3  15   2    8.51    1.95
  -3  15  -2    8.44    2.10
   3  15   2    8.69    2.72
  -3  15  -2    7.18    1.37
  -3  15  -2    8.00    1.45
  -3  15  -3    7.39    1.41
   3  15   3    6.49    1.51
   3  15   3    8.05    1.58
  -3  15  -3    7.08    1.97
   3  15   3    7.96    2.02
  -3  15  -3    6.92    1.21
   3  15   4    3.20    1.38
  -3  15  -4    4.80    1.30
  -3  15  -4    3.59    1.37
   3  15   4    5.12    1.46
  -3  15  -5    3.26    1.24
  -3  15  -5    3.80    1.25
   3  15   5    2.69    1.30
  -3  15  -6    1.64    1.05
   3  15   6    3.84    0.98
   3  15   6    3.98    1.12
   3 -16   7    6.58    0.97
   3  16  -6    3.69    0.94
  -3  16   6    4.84    0.87
   3 -16   6    1.68    1.58
   3  16  -5    1.38    1.12
   3  16  -4    0.76    1.28
   3  16  -4    1.27    1.04
  -3  16   4    0.48    1.15
   3  16  -3    0.80    1.26
   3  16  -3    2.04    1.10
  -3  16   3   -0.07    1.20
  -3  16   2    2.28    1.27
   3  16  -2    5.64    1.41
   3  16  -2    5.95    2.06
  -3  16   2    3.23    1.62
   3  16  -2    3.22    1.23
   3  16  -2    4.34    1.19
   3  16  -1   25.70    2.93
  -3  16   1   30.02    2.01
   3  16  -1   24.86    1.93
  -3  16   1   26.53    2.26
  -3  16   0   25.72    2.97
   3  16   0   25.94    3.00
  -3  16   0   26.09    2.16
   3  16   1   26.01    2.06
  -3  16  -1   26.15    2.18
  -3  16  -1   27.48    2.11
   3  16   1   28.08    3.15
  -3  16  -1   22.98    2.77
   3  16   2    3.38    1.40
  -3  16  -2    6.59    1.46
   3  16   2    5.37    1.81
  -3  16  -2    4.82    1.32
   3  16   2    7.39    2.61
  -3  16  -2    6.83    2.08
   3  16   3    1.68    1.90
  -3  16  -3   -0.15    1.27
  -3  16  -3    1.18    1.05
   3  16   3   -0.15    1.32
  -3  16  -4    1.25    1.27
  -3  16  -4   -0.03    1.20
   3  16   4    1.32    1.27
  -3  16  -5    0.58    1.09
  -3  16  -5    0.56    1.14
  -3  16  -6    4.15    0.95
  -3  16  -6    4.27    1.00
   3  16   6    4.84    0.88
  -3  16  -7    2.43    0.62
   3 -17   6    2.37    1.27
   3  17  -5    2.06    1.03
  -3  17   5    1.95    0.93
   3  17  -4    0.21    1.15
  -3  17   4    1.25    1.04
  -3  17   4    1.29    1.06
   3  17  -3   11.46    1.54
  -3  17   3    9.26    1.34
  -3  17   2    1.58    1.19
   3  17  -2    2.80    1.13
  -3  17   2    5.20    1.58
  -3  17   1   19.67    1.95
  -3  17   1   17.43    1.56
  -3  17   0  170.96    8.19
  -3  17   0  146.98    8.78
   3  17   0  130.97    8.70
  -3  17   0  179.23    8.28
  -3  17  -1   18.45    1.89
   3  17   1   21.06    2.17
  -3  17  -1   16.53    1.75
   3  17   1   16.81    1.64
   3  17   2    1.61    1.31
   3  17   2    3.33    1.77
  -3  17  -2    5.20    1.29
  -3  17  -2    3.41    1.41
   3  17   3   10.14    1.92
  -3  17  -3   10.54    1.45
   3  17   3    5.82    1.36
  -3  17  -3   10.89    1.44
  -3  17  -4    0.74    1.15
   3  17   4    0.27    1.13
  -3  17  -4    1.41    1.19
  -3  17  -5    1.38    1.01
   3  17   5    1.01    0.94
  -3  17  -5    1.23    1.04
   3  17   6    1.87    0.68
  -3  17  -6    3.03    0.80
   3 -18   6    2.97    0.91
  -3  18   5    6.45    0.86
   3  18  -5    4.63    0.90
  -3  18   4    7.85    1.10
  -3  18   4    9.17    1.11
   3  18  -4    9.54    1.23
  -3  18   3   20.77    1.61
  -3  18   3   18.44    1.67
   3  18  -2    3.76    1.06
  -3  18   2    4.97    1.13
   3  18  -1    8.12    1.37
  -3  18   1    6.17    1.41
  -3  18   1    8.18    1.60
  -3  18   1    9.82    1.19
  -3  18   0   26.10    2.14
  -3  18   0   28.28    2.17
  -3  18  -1   11.20    1.49
   3  18   1    9.09    1.29
   3  18   1    9.89    1.80
  -3  18  -1    9.35    1.55
  -3  18  -2    3.76    1.20
   3  18   2    4.51    1.21
  -3  18  -2    4.37    1.33
   3  18   2    3.97    1.69
  -3  18  -3   17.51    1.69
   3  18   3   20.89    2.06
   3  18   3   17.91    1.60
  -3  18  -4    7.61    1.21
   3  18   4    9.10    1.16
  -3  18  -4    9.77    1.29
   3  18   5    7.63    0.90
  -3  18  -5    2.93    0.98
  -3 -18   6    2.29    0.94
   3  18   6    1.72    0.49
   3 -19   5    0.79    1.08
  -3  19   4    3.85    0.84
  -3  19   3    1.63    1.03
  -3  19   3    1.13    0.89
  -3  19   2    1.70    0.95
   3  19  -1    8.65    1.24
  -3  19   1    6.21    1.35
   3  19   0    8.56    1.38
  -3  19   0   11.44    1.48
   3  19   0   13.12    1.73
   3  19   1    6.13    0.99
  -3  19  -1    5.42    1.27
   3  19   1    7.51    1.69
  -3  19  -1    6.89    1.34
   3  19   2    1.13    0.96
  -3  19  -2    1.32    0.99
   3  19   2    0.61    1.52
  -3  19  -2    0.07    1.18
   3  19   3    2.14    0.95
  -3  19  -3    1.81    1.12
   3  19   4    4.18    0.92
   3  19   4    4.61    0.87
   3  19   5    2.91    0.64
  -3  20   3    1.78    0.87
  -3  20   1    5.26    1.17
   3  20  -1    4.79    0.98
   3  20  -1    5.90    1.38
  -3  20   0   25.53    1.85
   3  20   0   25.03    1.80
   3  20   0   23.92    1.99
   3  20   1    4.82    1.12
  -3  20  -1    3.79    1.06
   3  20   1    3.55    1.41
   3  20   2   -0.63    1.00
  -3  20  -2    2.57    0.85
   3  20   2    0.93    0.75
   3  20   2   -0.31    1.32
   3  20   3    2.21    0.74
   3  20   4    8.66    0.80
   3  20   4    7.62    0.83
  -3  21   3    1.33    0.64
  -3  21   1    3.11    0.95
   3  21  -1    3.52    0.72
   3  21  -1    5.36    1.09
   3  21   0    4.81    0.92
  -3  21   0    7.54    0.99
   3  21   0    4.37    1.19
  -3  21  -1    3.85    0.84
   3  21   1    2.07    0.91
   3  21   1    2.71    1.16
  -3  21  -1    3.84    1.07
   3  21   2    2.26    0.81
  -3  22   1    2.82    0.67
  -3  22   0    2.54    0.66
   3  22   0    2.03    0.56
   3  22   1    2.28    0.63
  -3  22  -1    2.48    0.51
   3  22   2    0.79    0.53
  -4   0   0 2058.22   97.01
   4   0   1  746.43   36.05
  -4   0   1  758.76   36.07
  -4   0   1  788.36   36.09
   4   0   2  486.32   23.21
  -4   0   2  479.64   23.22
  -4   0   2  492.70   23.25
   4   0   3   19.83    2.21
  -4   0   3   18.07    2.31
  -4   0   3   19.01    2.43
  -4   0   3   19.09    1.75
  -4   0   4  105.08    6.12
   4   0   4  117.15    6.19
  -4   0   4  114.43    5.90
  -4   0   4  109.59    6.24
  -4   0   5   42.71    3.41
   4   0   5   42.87    3.42
  -4   0   5   38.22    3.51
   4   0   6   25.77    3.09
  -4   0   6   24.67    2.99
  -4   0   6   28.18    2.00
  -4   0   6   27.69    2.06
   4   0   6   21.94    2.10
  -4   0   6   25.37    2.16
   4   0   7    9.64    2.75
  -4   0   7    5.80    2.61
  -4   0   7    9.82    1.47
  -4   0   7    6.90    1.56
   4   0   7    5.92    1.78
  -4   0   7    8.43    1.80
  -4   0   8   34.60    2.17
   4   0   8   32.39    2.45
   4   0   9   55.65    3.07
   4  -1   9   11.11    1.39
  -4   1   8   37.28    2.39
   4  -1   8   42.61    2.75
  -4   1   7   26.08    1.96
  -4   1   7   24.07    2.20
   4  -1   7   25.19    2.27
  -4   1   7   22.71    1.99
   4  -1   7   22.82    3.32
  -4   1   7   19.22    2.93
   4  -1   6    4.67    2.62
  -4   1   6    3.50    2.45
   4  -1   6    6.23    1.68
  -4   1   6    4.49    1.54
  -4   1   6    6.56    1.55
  -4   1   6    6.50    1.46
  -4   1   6    5.00    1.35
  -4   1   5    0.49    2.25
   4  -1   5   -0.65    2.25
  -4   1   5    2.50    2.15
  -4   1   4   12.16    2.48
  -4   1   4   17.04    2.27
   4  -1   4   19.92    2.51
  -4   1   3   13.29    1.63
  -4   1   3   11.06    2.24
   4  -1   3   13.90    2.30
  -4   1   3   12.96    2.00
   4  -1   2    5.85    0.58
  -4   1   2    7.73    1.92
   4  -1   2    6.25    1.79
  -4   1   2   10.80    1.70
  -4   1   1   89.60    4.52
  -4   1   1   81.92    4.55
   4   1   0  123.21    5.78
  -4   1   0  119.63    5.78
   4   1   1   81.51    3.99
   4   1   1   86.32    4.00
   4   1   2   10.73    1.73
  -4  -1   2    6.64    1.76
   4   1   2    7.33    2.03
  -4  -1   2    5.68    2.02
  -4  -1   3   12.77    2.07
   4   1   3   14.92    2.00
   4   1   3   11.15    2.30
  -4  -1   3   11.14    1.58
  -4  -1   3   10.43    2.21
  -4  -1   4   15.87    2.43
   4   1   4   17.30    2.32
  -4  -1   4   10.37    2.51
   4   1   4   14.76    2.64
  -4  -1   4   12.74    1.73
   4   1   5   -0.37    2.05
  -4  -1   5    1.03    2.33
   4   1   5   -0.26    2.45
  -4  -1   5    1.70    2.49
  -4  -1   5   -0.77    1.46
  -4  -1   6    7.54    1.67
   4   1   6    4.52    1.55
  -4  -1   6   11.41    2.70
   4   1   6    3.67    2.47
  -4  -1   6    6.45    1.55
  -4  -1   6    6.42    1.39
   4   1   6    6.89    2.79
  -4  -1   6    9.88    2.82
   4   1   7   22.53    3.01
  -4  -1   7   18.57    3.20
   4   1   7   27.84    2.30
  -4  -1   7   24.96    2.27
  -4  -1   7   24.87    1.96
  -4  -1   7   27.54    2.09
   4   1   7   26.10    3.37
  -4  -1   8   33.31    2.25
   4   1   8   42.21    2.58
   4   1   9   10.18    1.30
  -4   2   9    9.75    1.02
   4  -2   9   13.76    1.42
  -4   2   8    3.62    1.25
   4  -2   8    1.79    1.62
   4  -2   7   15.66    2.09
  -4   2   7   18.92    1.72
  -4   2   7   16.98    1.79
  -4   2   7   18.95    2.62
   4  -2   7   19.04    3.15
   4  -2   7   20.23    3.53
  -4   2   6   13.45    1.73
   4  -2   6   14.56    1.90
  -4   2   6   14.57    1.59
   4  -2   6   18.20    2.95
  -4   2   6   15.98    2.61
   4  -2   6   20.02    3.25
  -4   2   6   16.68    1.75
   4  -2   5   22.00    3.05
   4  -2   5   26.81    2.91
  -4   2   5   16.98    2.56
  -4   2   4   74.62    4.54
   4  -2   4   81.95    4.86
   4  -2   3    4.81    0.82
   4  -2   3    5.52    2.04
  -4   2   3    5.07    1.80
  -4   2   2  222.83   10.65
  -4   2   2  213.30   10.69
  -4   2   1 3187.01  150.19
  -4   2   1 3185.76  150.22
  -4   2   0   15.58    1.12
   4   2   0   16.08    1.06
   4   2   1 3200.82  151.53
  -4  -2   1 3301.95  151.53
   4   2   1 3195.13  151.53
   4   2   1 3163.71  151.52
   4   2   2  225.90   11.22
  -4  -2   2  236.72   11.30
   4   2   2  230.52   11.27
   4   2   3    5.82    1.85
  -4  -2   3    5.03    2.03
   4   2   3    3.75    2.07
  -4  -2   3    5.12    2.19
  -4  -2   3    5.32    1.37
  -4  -2   4   69.77    4.50
   4   2   4   69.54    4.39
   4   2   4   74.00    4.55
  -4  -2   4   73.39    4.11
  -4  -2   4   76.28    4.64
  -4  -2   5   25.35    2.74
   4   2   5   19.53    2.55
  -4  -2   5   19.60    2.06
   4   2   5   22.43    2.88
  -4  -2   5   25.79    2.99
   4   2   6   14.86    1.80
  -4  -2   6   20.75    2.04
  -4  -2   6   16.82    2.88
   4   2   6   15.31    2.53
  -4  -2   6   20.90    1.85
  -4  -2   6   18.85    1.71
  -4  -2   6   22.20    3.25
   4   2   6   20.44    3.02
   4   2   7   17.94    2.57
  -4  -2   7   15.62    3.12
  -4  -2   7   16.63    1.59
   4   2   7   12.72    1.93
  -4  -2   7   13.79    2.06
  -4  -2   7   18.10    1.78
   4   2   8    3.19    1.47
  -4  -2   8    4.98    1.19
   4  -3   9    5.87    1.28
  -4   3   9    5.66    0.92
   4  -3   8   20.83    2.08
  -4   3   8   18.90    1.68
  -4   3   7  139.00    7.14
   4  -3   7  153.39    7.32
   4  -3   7  150.38    8.51
   4  -3   7  135.27    8.21
  -4   3   7  129.24    7.77
  -4   3   6    5.85    2.08
   4  -3   6    8.35    2.82
  -4   3   6    3.85    1.52
   4  -3   6    5.79    1.84
  -4   3   6    6.39    1.52
   4  -3   6    3.53    3.18
  -4   3   6    4.94    1.32
   4  -3   5   12.49    2.63
  -4   3   5    9.94    2.16
   4  -3   5    6.37    2.81
  -4   3   5    9.27    1.43
  -4   3   5    7.87    1.29
   4  -3   4   26.70    3.27
  -4   3   4   35.82    2.59
   4  -3   4   41.88    3.12
   4  -3   3   17.99    1.39
  -4   3   3   32.12    2.18
  -4   3   2   47.96    2.89
  -4   3   2   50.33    3.14
  -4   3   1   30.97    1.95
  -4   3   1   28.11    2.09
  -4   3   0   56.01    2.86
   4   3   0   51.52    2.84
   4   3   1   27.82    1.84
   4   3   1   29.99    1.96
   4   3   1   26.99    1.81
  -4  -3   2   36.22    2.87
   4   3   2   41.27    2.85
   4   3   2   45.42    2.78
   4   3   2   46.32    2.66
   4   3   3   23.30    2.12
  -4  -3   3   23.67    1.98
  -4  -3   3   21.85    2.61
   4   3   3   27.10    2.56
   4   3   4   36.43    2.74
  -4  -3   4   36.64    3.14
  -4  -3   4   28.95    2.37
  -4  -3   4   28.33    3.07
   4   3   4   33.84    3.03
  -4  -3   5   10.12    2.63
   4   3   5    6.74    2.01
  -4  -3   5    7.00    2.67
   4   3   5    8.19    2.47
  -4  -3   5    6.41    1.63
   4   3   6    5.00    1.24
   4   3   6    2.97    1.52
  -4  -3   6    7.38    1.84
   4   3   6    6.52    2.13
  -4  -3   6    6.51    2.79
  -4  -3   6    5.41    1.48
  -4  -3   6    5.14    1.32
  -4  -3   6    6.59    2.82
   4   3   6    5.62    2.45
  -4  -3   7  131.94    6.72
  -4  -3   7  136.97    7.82
   4   3   7  122.04    7.39
  -4  -3   7  116.81    6.63
   4   3   7  154.85    6.82
  -4  -3   7  140.19    6.92
  -4  -3   7  137.33    7.92
   4   3   8   16.61    1.71
  -4   4   9    5.43    0.91
   4  -4   9    6.49    1.29
  -4   4   8    9.71    1.39
   4  -4   8    9.30    1.78
  -4   4   7   30.78    2.24
   4  -4   7   30.63    2.64
   4  -4   7   29.79    3.94
   4  -4   7   36.59    3.78
  -4   4   7   29.94    2.93
  -4   4   6  143.73    8.04
   4  -4   6  171.06    8.61
  -4   4   6  134.60    7.42
   4  -4   6  150.66    7.66
  -4   4   6  158.11    7.50
  -4   4   6  147.73    7.45
   4  -4   6  172.23    8.91
  -4   4   5   55.68    3.49
   4  -4   5   58.05    4.14
   4  -4   5   47.49    3.16
  -4   4   5   44.51    2.84
  -4   4   5   47.49    2.89
  -4   4   5   50.95    2.90
  -4   4   5   51.79    2.85
   4  -4   5   58.74    4.37
  -4   4   4   61.74    3.46
   4  -4   4   65.22    4.09
  -4   4   3   67.88    3.90
  -4   4   3   58.66    3.63
  -4   4   2   42.88    2.87
  -4   4   2   41.94    2.62
   4   4  -1   21.45    1.82
  -4   4   1   25.96    1.93
  -4   4   1   21.98    1.67
   4   4   0  954.45   44.83
  -4   4   0  941.53   44.84
  -4   4  -1   20.96    1.66
   4   4   1   21.34    1.83
   4   4   1   19.38    1.56
   4   4   2   40.02    2.54
   4   4   2   47.39    2.77
   4   4   2   38.67    2.65
  -4  -4   2   40.91    2.96
   4   4   3   57.62    3.49
   4   4   3   65.08    3.77
  -4  -4   3   58.97    3.98
   4   4   3   58.82    3.72
  -4  -4   4   71.77    4.56
   4   4   4   69.37    4.18
  -4  -4   4   62.80    3.86
  -4  -4   4   69.58    4.43
   4   4   4   62.45    3.89
   4   4   5   44.73    2.79
  -4  -4   5   44.86    3.06
   4   4   5   52.10    3.38
  -4  -4   5   52.59    3.95
   4   4   5   51.10    3.63
  -4  -4   5   48.74    3.22
  -4  -4   5   58.45    4.10
   4   4   6  154.94    7.95
  -4  -4   6  163.49    8.40
  -4  -4   6  141.25    7.46
   4   4   6  135.55    7.28
   4   4   6  148.30    7.22
  -4  -4   6  152.07    7.34
  -4  -4   6  171.01    8.54
  -4  -4   6  126.26    7.64
  -4  -4   6  147.33    7.28
   4   4   7   30.91    2.29
  -4  -4   7   28.41    2.49
  -4  -4   7   29.75    2.04
   4   4   7   33.35    2.12
  -4  -4   7   37.22    3.77
   4   4   7   30.77    2.98
  -4  -4   7   37.85    3.68
   4  -5   9    1.09    1.17
  -4   5   9    3.06    0.82
   4  -5   8   17.93    2.00
  -4   5   8   15.56    1.54
  -4   5   7    2.77    1.98
   4  -5   7    5.61    2.94
   4  -5   7   11.33    2.06
  -4   5   7    5.66    1.45
   4  -5   7    2.70    3.21
  -4   5   6  117.54    6.04
   4  -5   6  123.28    6.37
  -4   5   6  110.82    6.04
  -4   5   6  123.20    6.05
  -4   5   6  114.35    6.61
   4  -5   6  122.94    7.36
   4  -5   6  119.39    7.58
  -4   5   5   25.08    1.92
   4  -5   5   28.76    3.71
   4  -5   5   30.66    3.46
  -4   5   5   31.37    2.58
  -4   5   5   23.57    1.87
   4  -5   5   25.13    2.34
   4  -5   4    5.48    1.03
  -4   5   4   10.15    1.76
  -4   5   3  234.75   11.49
  -4   5   3  227.13   11.06
  -4   5   3  225.87   11.24
  -4   5   2   38.87    2.82
  -4   5   2   36.54    2.44
  -4   5   1  188.19    8.99
  -4   5   1  170.68    8.88
   4   5  -1  189.67    8.94
   4   5   0    9.73    1.40
  -4   5   0   12.06    1.47
   4   5   1  177.36    8.82
   4   5   1  169.96    8.75
  -4   5  -1  192.00    8.80
   4   5   2   36.59    2.54
   4   5   2   29.56    2.18
   4   5   3  222.07   10.10
   4   5   3  206.77   10.28
   4   5   3  208.71   10.47
  -4  -5   4   10.94    2.63
  -4  -5   4    7.74    1.63
   4   5   4    8.80    1.81
   4   5   5   23.99    1.83
  -4  -5   5   23.81    2.25
   4   5   5   26.06    1.73
  -4  -5   5   23.34    1.93
  -4  -5   5   17.69    2.26
  -4  -5   5   24.64    3.28
   4   5   5   30.17    2.51
  -4  -5   5   27.66    3.23
   4   5   6  113.12    5.50
  -4  -5   6  112.72    5.79
   4   5   6  107.39    5.41
  -4  -5   6  111.31    5.52
  -4  -5   6  112.30    6.77
   4   5   6  109.52    6.13
  -4  -5   6  111.20    6.75
  -4  -5   7   12.25    2.00
   4   5   7    6.33    1.47
  -4  -5   7    6.67    2.98
   4   5   7    6.33    1.32
   4   5   7    2.27    1.93
  -4  -5   7    8.28    2.95
   4  -6   9    8.69    1.31
  -4   6   9    9.42    0.93
  -4   6   8    5.92    1.26
   4  -6   8    4.35    1.68
   4  -6   7    5.96    1.99
   4  -6   7    0.22    3.20
  -4   6   7    1.64    1.38
  -4   6   7    1.77    1.82
   4  -6   7    1.91    2.88
  -4   6   6   17.40    1.75
   4  -6   6   18.20    2.43
  -4   6   6   19.91    1.58
  -4   6   6   18.62    1.79
   4  -6   6   24.64    4.00
  -4   6   6   22.46    2.44
   4  -6   6   26.71    3.67
  -4   6   5   24.27    2.34
   4  -6   5   25.13    3.41
  -4   6   5   22.42    1.79
   4  -6   5   23.96    2.34
  -4   6   5   25.75    1.86
  -4   6   5   24.79    1.75
  -4   6   5   23.98    1.81
   4  -6   5   27.70    3.67
  -4   6   4    9.17    1.72
  -4   6   3  102.57    5.72
  -4   6   3  112.37    5.58
  -4   6   3  113.85    6.06
  -4   6   2   42.40    2.60
  -4   6   2   42.41    2.52
   4   6  -2   43.43    2.78
  -4   6   2   45.47    3.05
   4   6  -1   39.37    2.52
  -4   6   1   43.72    2.65
  -4   6   1   37.22    2.37
   4   6   0  195.46    9.48
  -4   6   0  192.22    9.48
  -4   6  -1   40.03    2.47
   4   6   1   41.37    2.57
   4   6   1   38.88    2.37
  -4   6  -2   43.48    2.84
   4   6   2   48.97    3.08
   4   6   2   42.56    2.72
   4   6   3  116.93    5.85
   4   6   3  112.01    6.04
   4   6   3  115.10    6.31
  -4  -6   3  122.02    6.46
  -4  -6   4   12.13    2.67
  -4  -6   4   10.43    1.72
   4   6   4   10.05    1.78
   4   6   5   25.58    2.44
  -4  -6   5   29.76    3.45
  -4  -6   5   23.12    2.33
   4   6   5   21.74    1.81
   4   6   5   25.10    1.79
  -4  -6   5   27.01    1.89
  -4  -6   5   27.92    3.32
  -4  -6   5   26.19    2.39
   4   6   5   28.67    1.95
  -4  -6   6   20.35    2.35
   4   6   6   16.13    1.56
   4   6   6   18.86    1.64
  -4  -6   6   22.50    3.47
   4   6   6   18.25    2.36
  -4  -6   6   22.91    3.44
  -4  -6   6   12.68    2.14
  -4  -6   7    5.56    1.96
   4   6   7    1.49    1.84
  -4  -6   7    4.47    2.95
   4   6   7    2.12    1.26
  -4  -6   7    3.40    2.85
   4   6   8    5.80    1.08
   4  -7   9    3.06    1.08
  -4   7   9    2.57    0.74
   4  -7   8    4.34    1.66
  -4   7   8    3.37    1.13
  -4   7   7    5.54    1.40
   4  -7   7    8.28    2.11
  -4   7   7    6.81    1.89
  -4   7   6   12.08    1.39
  -4   7   6   14.00    1.63
   4  -7   6   12.41    2.24
   4  -7   6   16.66    3.87
   4  -7   6   15.06    3.43
  -4   7   6   12.23    2.16
  -4   7   5   23.20    2.36
   4  -7   5   26.11    3.48
  -4   7   5   22.27    1.81
  -4   7   5   26.02    1.87
   4  -7   5   26.59    3.82
  -4   7   4    9.86    1.74
  -4   7   3   27.30    2.15
  -4   7   3   29.48    2.85
  -4   7   3   26.25    2.13
   4   7  -3   23.93    2.29
  -4   7   2  175.26    8.73
   4   7  -2  172.28    8.55
  -4   7   2  166.45    8.31
  -4   7   2  167.03    8.43
  -4   7   1   56.55    3.34
   4   7  -1   55.39    3.27
  -4   7   1   54.34    3.14
   4   7   0   26.05    2.06
  -4   7   0   25.24    2.04
   4   7   1   51.92    3.23
  -4   7  -1   55.42    3.14
   4   7   2  183.17    8.93
  -4   7  -2  175.56    8.77
   4   7   2  173.02    8.53
   4   7   2  172.47    8.71
   4   7   3   24.76    1.99
  -4   7  -3   28.84    2.27
   4   7   3   21.72    2.04
   4   7   3   30.48    2.67
  -4  -7   3   20.23    2.85
  -4  -7   4    9.49    2.63
   4   7   4    8.75    1.65
  -4  -7   5   25.61    3.48
   4   7   5   24.96    2.31
   4   7   5   24.10    1.72
  -4  -7   5   27.74    3.36
   4   7   5   19.72    1.87
  -4  -7   6   14.55    2.31
   4   7   6   12.70    2.15
  -4  -7   6   14.87    3.41
   4   7   6   11.95    1.50
  -4  -7   6    5.94    1.95
  -4  -7   6   13.57    3.23
   4   7   6   13.67    1.55
  -4  -7   7    6.66    2.96
  -4  -7   7    9.85    2.16
   4   7   7    5.47    1.27
   4   7   8    2.60    0.99
  -4  -7   9    1.96    1.13
   4  -8   9    1.49    1.01
  -4   8   9    1.97    0.66
   4  -8   8    2.38    1.60
  -4   8   8    1.43    1.05
   4  -8   7    7.88    2.06
  -4   8   7    2.52    1.32
  -4   8   6   21.25    1.65
   4  -8   6   14.76    2.53
  -4   8   6   15.80    2.15
   4  -8   6   23.84    3.63
  -4   8   6   17.41    1.78
   4  -8   6   23.10    4.00
   4   8  -6   22.01    2.71
  -4   8   5    2.92    1.21
   4   8  -5    4.96    2.00
   4  -8   5    3.41    2.90
  -4   8   5    4.21    1.65
   4  -8   5    7.18    3.29
  -4   8   5    4.74    1.29
  -4   8   4   40.51    3.69
  -4   8   4   39.42    2.86
   4   8  -4   44.64    3.22
  -4   8   4   43.12    2.59
  -4   8   3   46.75    3.08
  -4   8   3   51.55    3.01
   4   8  -3   48.68    3.34
  -4   8   3   54.87    3.68
  -4   8   2   71.72    4.30
  -4   8   2   82.52    4.22
   4   8  -2   82.19    4.51
  -4   8   2   85.43    4.75
   4   8  -1  391.98   18.85
  -4   8   1  388.80   18.91
   4   8   0   26.58    2.13
   4   8   0   26.62    1.69
  -4   8   0   27.66    1.70
  -4   8   0   28.74    2.14
  -4   8  -1  364.62   18.14
   4   8   1  389.77   18.21
   4   8   2   79.59    4.37
   4   8   2   89.68    4.74
  -4   8  -2   74.02    4.44
   4   8   2   81.22    4.24
   4   8   3   53.54    3.00
  -4   8  -3   47.35    3.30
  -4  -8   3   50.27    3.72
   4   8   3   53.07    3.58
   4   8   3   50.07    3.15
  -4  -8   4   47.26    3.69
   4   8   4   41.13    2.48
  -4   8  -4   45.11    3.20
   4   8   4   45.32    3.50
   4   8   4   42.14    2.91
   4   8   4   41.94    2.67
   4   8   5    4.38    1.43
  -4  -8   5    2.82    1.84
  -4  -8   5    8.51    2.79
   4   8   5    3.19    1.69
  -4  -8   5    4.06    2.83
  -4   8  -5    8.63    2.13
   4   8   5    5.15    1.25
   4   8   6   17.53    1.67
  -4  -8   6   12.30    2.45
   4   8   6   18.26    1.64
  -4  -8   6   18.59    3.58
   4   8   6   16.97    2.17
  -4   8  -6   20.66    2.64
  -4  -8   6   12.71    2.21
  -4  -8   6   16.74    3.20
   4   8   7    3.99    1.22
  -4  -8   9    0.12    1.04
   4  -9   9    2.51    0.88
  -4   9   8    1.43    1.00
   4  -9   8    3.46    1.51
  -4   9   7    6.05    1.32
   4  -9   7    2.88    2.02
   4  -9   6    4.50    3.42
  -4   9   6    1.25    1.63
   4  -9   6   -0.57    3.10
   4  -9   6    2.53    2.09
  -4   9   6    0.78    1.17
  -4   9   6    2.08    1.34
   4   9  -6    4.21    2.11
   4  -9   5   -1.09    3.56
   4  -9   5   -1.90    3.29
  -4   9   5    1.15    1.59
  -4   9   5    2.00    1.10
   4   9  -5    3.85    2.01
  -4   9   5    0.78    1.27
   4   9  -4   25.49    2.56
  -4   9   4   29.21    2.10
  -4   9   4   32.17    1.98
  -4   9   4   28.66    3.29
  -4   9   4   27.22    2.34
  -4   9   4   25.24    1.80
  -4   9   3    1.85    1.34
  -4   9   3    3.39    2.36
   4   9  -3    3.85    1.70
  -4   9   3    1.85    1.63
  -4   9   2   25.31    2.19
  -4   9   2   31.49    2.75
  -4   9   2   31.74    2.15
   4   9  -2   29.38    2.47
  -4   9   1   11.38    1.96
   4   9  -1    9.89    1.71
   4   9  -1    9.05    1.16
  -4   9   0   41.48    2.75
   4   9   0   38.39    2.71
   4   9   0   40.60    2.30
  -4   9   0   40.49    2.31
   4   9   1   10.54    1.91
  -4   9  -1   12.59    1.66
  -4   9  -1   10.29    1.13
   4   9   2   30.21    2.75
  -4   9  -2   28.32    2.35
   4   9   2   31.88    2.16
   4   9   2   26.21    2.23
   4   9   3    1.88    1.53
  -4   9  -3    5.19    1.63
   4   9   3    5.91    2.25
   4   9   3    1.91    1.36
  -4  -9   3    2.80    2.30
   4   9   4   23.02    2.27
  -4   9  -4   30.43    2.63
   4   9   4   26.31    1.87
  -4  -9   4   24.71    3.12
   4   9   4   25.72    2.08
   4   9   4   33.13    3.09
   4   9   5    1.72    1.24
   4   9   5    0.79    1.42
   4   9   5    2.99    1.64
  -4  -9   5   -1.09    3.04
  -4   9  -5    0.55    1.99
  -4  -9   5    1.29    1.80
  -4  -9   5    2.33    2.69
  -4  -9   6    1.28    3.18
   4   9   6    2.93    1.70
   4   9   6    1.44    1.28
  -4   9  -6    1.27    2.03
   4   9   6   -0.24    1.27
  -4  -9   6    1.43    2.22
   4   9   7    4.76    1.22
  -4  -9   9    2.34    0.91
  -4   9  -9    1.09    0.70
   4 -10   9    8.38    0.77
   4  10  -9    6.13    0.66
   4 -10   8    2.33    1.42
  -4  10   8    2.47    0.92
   4 -10   7    5.80    2.06
  -4  10   7    4.37    1.22
  -4  10   6   24.22    2.40
  -4  10   6   27.21    1.97
   4 -10   6   25.58    2.77
  -4  10   6   26.53    2.01
   4  10  -6   25.18    2.75
   4 -10   6   28.90    3.93
   4 -10   6   29.29    4.20
  -4  10   5   78.55    4.12
  -4  10   5   67.77    3.79
  -4  10   5   71.11    4.39
   4  10  -5   79.14    4.74
   4 -10   5   87.60    6.02
   4 -10   5   78.79    5.70
  -4  10   4    6.67    1.62
   4  10  -4    5.53    1.96
  -4  10   4    7.89    2.73
  -4  10   4    4.63    1.37
  -4  10   4    5.15    1.15
  -4  10   4    4.78    1.27
  -4  10   3   17.44    1.94
  -4  10   3   17.14    1.66
   4  10  -3   19.48    2.21
  -4  10   3   21.04    2.04
  -4  10   3   19.30    2.82
  -4  10   3   15.18    1.81
  -4  10   3   20.28    1.54
  -4  10   2  103.73    5.34
   4  10  -2   99.80    5.58
  -4  10   2  104.73    5.90
   4  10  -1   22.48    2.12
   4  10  -1   19.68    1.50
  -4  10   1   18.51    2.23
   4  10   0    6.53    1.11
  -4  10   0    4.87    1.11
   4  10   0    5.33    1.67
  -4  10   0    6.42    1.67
  -4  10  -1   20.79    1.98
  -4  10  -1   16.43    1.42
   4  10   1   22.34    2.18
   4  10   2  105.78    5.78
   4  10   2  104.49    5.27
  -4  10  -2   93.43    5.49
  -4  10  -3   19.46    2.10
   4  10   3   19.80    1.99
   4  10   3   16.76    1.86
   4  10   3   19.33    1.78
   4  10   3   23.59    2.76
   4  10   3   19.42    1.54
   4  10   4    6.22    1.62
   4  10   4    7.09    1.54
  -4  10  -4    3.55    1.84
   4  10   4    7.58    2.64
   4  10   4    6.97    1.30
   4  10   5   80.75    4.13
  -4  10  -5   76.76    4.85
  -4 -10   5   87.79    5.99
   4  10   5   79.44    4.63
   4  10   6   21.17    2.36
  -4 -10   6   25.99    2.86
  -4  10  -6   22.07    2.67
   4  10   6   25.80    1.94
   4  10   6   27.94    2.04
   4  10   7    3.88    1.17
  -4 -10   8    3.74    1.51
  -4 -10   9    9.81    0.85
  -4  10  -9    5.69    0.65
  -4  11   8    4.43    0.88
   4 -11   8    6.24    1.34
  -4  11   7    6.02    1.18
   4 -11   7    8.90    1.94
  -4  11   6   60.14    3.50
  -4  11   6   62.88    3.43
   4 -11   6   65.10    4.09
  -4  11   5   24.74    1.97
   4  11  -5   17.58    2.51
  -4  11   5   20.08    1.66
  -4  11   5   20.64    2.14
   4 -11   5   25.21    3.95
  -4  11   4   13.65    1.82
   4  11  -4   13.83    2.28
  -4  11   4   16.29    3.10
  -4  11   4   16.16    1.51
  -4  11   4   13.95    1.46
   4  11  -3   31.30    2.58
  -4  11   3   33.48    2.41
  -4  11   3   25.34    2.03
  -4  11   3   25.87    2.25
  -4  11   3   32.72    3.17
  -4  11   3   29.42    1.86
  -4  11   3   21.69    1.81
  -4  11   2    2.17    2.14
   4  11  -2    3.76    1.62
  -4  11   2    5.29    1.53
  -4  11   2    5.80    1.49
  -4  11   2    3.59    1.24
   4  11  -1    9.30    1.81
  -4  11   1    9.09    2.09
   4  11  -1    9.37    1.28
  -4  11   0   27.42    2.36
   4  11   0   23.13    2.34
  -4  11   0   27.70    1.79
   4  11   0   21.77    1.78
   4  11   1   11.13    2.01
  -4  11  -1   10.60    1.71
  -4  11  -1    9.96    1.19
   4  11   2    4.83    1.34
  -4  11  -2    3.09    1.12
   4  11   2    5.58    1.51
  -4  11  -2    2.90    1.06
  -4  11  -2    2.93    1.64
   4  11   2    2.01    2.09
  -4  11  -3   28.13    2.74
   4  11   3   37.42    2.55
   4  11   3   34.84    2.39
   4  11   3   37.54    3.30
   4  11   3   33.20    2.19
  -4  11  -4   15.75    2.25
   4  11   4   16.31    2.97
   4  11   4   13.56    1.81
   4  11   4   15.14    1.55
   4  11   4   13.93    1.90
  -4  11  -5   22.86    2.55
   4  11   5   20.13    1.77
   4  11   5   20.57    2.14
  -4 -11   5   17.07    2.50
   4  11   6   60.70    3.44
   4  11   6   57.26    3.28
   4  11   6   59.58    3.32
  -4 -11   6   61.35    4.08
   4  11   7    4.49    1.20
  -4 -11   7    8.08    1.95
  -4 -11   8    6.84    1.43
  -4  11  -8    2.86    0.97
   4 -12   8    4.58    1.16
   4  12  -8    2.65    0.81
  -4  12   7    1.75    1.02
   4 -12   7    4.71    1.79
  -4  12   6   13.93    1.50
   4 -12   6   12.23    2.40
  -4  12   5    6.99    1.41
   4 -12   5    5.83    3.50
  -4  12   5    5.08    1.23
   4  12  -5    5.44    2.01
  -4  12   4    8.47    1.32
  -4  12   4    6.72    1.33
  -4  12   4    7.48    2.89
   4  12  -4    7.79    2.11
  -4  12   3   24.92    2.22
  -4  12   3   20.45    2.97
   4  12  -3   17.69    2.34
  -4  12   3   21.27    2.15
  -4  12   3   17.63    1.66
  -4  12   3   18.83    1.83
  -4  12   3   21.17    1.60
   4  12  -2   10.94    1.47
  -4  12   2   15.73    1.81
   4  12  -2   13.84    2.09
  -4  12   2   14.26    2.46
  -4  12   2   18.61    1.75
  -4  12   2   11.34    1.52
   4  12  -2   12.14    1.24
  -4  12   2   14.57    1.58
  -4  12   2   13.33    1.27
  -4  12   1   15.37    1.67
   4  12  -1   13.03    1.99
  -4  12   1   13.34    2.20
  -4  12   1   13.78    1.47
   4  12  -1   16.45    1.49
   4  12   0    4.58    1.82
  -4  12   0    3.49    1.75
  -4  12   0    7.10    1.22
   4  12   0    7.28    1.24
  -4  12   0    2.34    1.18
   4  12   1   15.34    2.31
  -4  12  -1   14.04    1.95
  -4  12  -1   14.19    1.39
   4  12   1   15.51    1.59
  -4  12  -1   14.38    1.43
   4  12   1   15.15    1.54
  -4  12  -2   14.46    1.42
   4  12   2   14.11    1.67
  -4  12  -2   14.18    1.42
   4  12   2   13.93    1.86
  -4  12  -2   13.02    1.42
  -4  12  -2   13.52    1.96
   4  12   2   16.53    2.50
   4  12   3   20.98    1.95
  -4  12  -3   20.05    1.63
   4  12   3   26.23    2.99
  -4  12  -3   20.36    2.31
   4  12   3   25.08    2.20
   4  12   4    8.97    2.85
  -4  12  -4    7.59    2.12
   4  12   4    7.71    1.44
   4  12   5    6.27    1.45
  -4 -12   5    8.47    2.10
  -4  12  -5    7.77    2.04
   4  12   5    4.65    1.40
   4  12   6   14.91    1.62
   4  12   6   16.97    1.57
  -4 -12   6   14.65    2.55
  -4 -12   7    3.30    1.90
  -4  12  -7    1.57    1.11
   4  12   7    1.98    1.08
  -4 -12   8    3.94    1.18
  -4  12  -8    1.86    0.87
   4 -13   8    1.40    0.90
  -4  13   7   13.04    1.19
   4 -13   7   15.63    1.80
   4  13  -7   11.75    1.19
   4  13  -7   10.97    1.24
   4 -13   6   20.79    2.47
  -4  13   6   20.50    1.69
  -4  13   5   41.02    2.65
  -4  13   5   44.19    2.51
  -4  13   5   39.30    2.43
  -4  13   4    4.24    1.33
  -4  13   4    2.25    1.21
  -4  13   4    1.01    2.69
   4  13  -4    0.21    1.86
  -4  13   4    3.21    1.34
   4  13  -3    4.07    1.09
  -4  13   3    4.66    1.84
  -4  13   3    2.81    1.34
   4  13  -3    2.63    1.38
  -4  13   3    4.06    2.02
   4  13  -3    1.90    1.87
  -4  13   3    4.99    2.73
  -4  13   3    4.41    1.41
  -4  13   3    5.13    1.18
   4  13  -2   76.52    4.07
  -4  13   2   74.95    4.26
  -4  13   2   78.33    5.19
  -4  13   2   75.48    4.03
  -4  13   2   74.31    4.35
   4  13  -2   89.42    4.22
  -4  13   2   80.16    4.46
   4  13  -2   78.39    4.74
  -4  13   1   32.21    2.94
  -4  13   1   30.00    2.14
   4  13  -1   34.48    2.13
   4  13  -1   31.32    2.75
   4  13  -1   28.27    1.93
  -4  13   1   33.83    2.30
   4  13   0   10.26    2.20
  -4  13   0   14.85    2.23
  -4  13   0   14.72    1.53
   4  13   0   12.20    1.44
   4  13   1   29.50    2.23
  -4  13  -1   31.97    2.10
   4  13   1   30.00    2.99
  -4  13  -1   29.23    2.17
   4  13   1   35.37    2.24
  -4  13  -1   31.55    2.11
  -4  13  -1   27.95    2.62
   4  13   2   84.85    5.23
  -4  13  -2   71.99    4.25
  -4  13  -2   80.45    4.20
   4  13   2   83.84    4.48
  -4  13  -2   71.84    4.69
   4  13   2   80.94    4.35
  -4  13  -2   81.45    4.21
   4  13   3    4.28    1.51
   4  13   3    3.07    2.57
  -4  13  -3    5.88    1.96
  -4  13  -3    3.58    1.11
  -4  13  -3    2.46    1.22
   4  13   3    1.15    1.86
  -4  13  -3    4.00    1.25
   4  13   4    3.39    2.64
  -4  13  -4    4.44    1.93
   4  13   4    3.45    1.38
   4  13   5   35.42    2.29
   4  13   5   33.21    2.42
   4  13   6   22.12    1.73
   4  13   6   21.62    1.77
  -4 -13   6   21.01    2.62
  -4  13  -7   10.26    1.29
  -4  13  -7    8.88    1.20
  -4 -13   8    2.34    0.96
  -4  13  -8    0.35    0.68
   4  14  -7   16.04    1.34
   4 -14   7   24.49    1.83
   4  14  -6    4.33    1.18
  -4  14   6    6.18    1.10
   4  14  -6    4.74    1.05
   4  14  -5    1.61    1.09
   4  14  -5    0.53    1.29
  -4  14   5    3.21    1.16
   4  14  -4    9.51    1.34
  -4  14   4   10.24    1.56
   4  14  -4    9.64    1.47
  -4  14   4   11.30    1.36
   4  14  -4   10.43    2.13
  -4  14   4    7.86    2.85
  -4  14   3   17.69    3.04
   4  14  -3   18.02    2.37
  -4  14   3   17.40    1.52
  -4  14   3   17.07    2.27
   4  14  -3   19.25    1.80
  -4  14   3   16.86    2.12
  -4  14   3   16.94    1.81
   4  14  -3   18.49    1.55
  -4  14   2   34.23    2.65
   4  14  -2   32.73    2.15
  -4  14   2   33.28    2.36
   4  14  -2   33.78    2.33
   4  14  -2   32.80    2.97
  -4  14   2   32.97    2.67
  -4  14   2   39.16    3.54
   4  14  -1   38.30    2.45
  -4  14   1   44.22    2.77
  -4  14   1   42.47    2.61
  -4  14   1   40.61    3.61
   4  14  -1   40.06    3.31
   4  14  -1   46.49    2.70
  -4  14   0   13.88    2.37
   4  14   0   12.31    2.35
   4  14   0   17.04    1.58
  -4  14   0   16.16    1.76
  -4  14  -1   36.30    3.18
   4  14   1   37.82    3.43
  -4  14  -1   41.97    2.64
  -4  14  -1   40.72    2.60
  -4  14  -1   40.44    2.61
   4  14   1   42.00    2.65
   4  14   2   32.68    3.39
   4  14   2   33.84    2.45
  -4  14  -2   35.88    2.31
  -4  14  -2   33.87    2.31
  -4  14  -2   32.11    2.33
   4  14   2   34.35    2.67
  -4  14  -2   32.08    2.94
   4  14   3   22.55    3.11
  -4  14  -3   17.96    1.63
  -4  14  -3   18.31    1.73
  -4  14  -3   19.62    2.44
   4  14   3   22.24    2.30
  -4  14  -3   20.75    1.81
   4  14   4   11.88    1.60
  -4  14  -4   10.30    2.17
   4  14   4    9.28    2.83
  -4  14  -4   11.75    1.58
  -4  14  -4   10.13    1.54
   4  14   5    1.65    1.30
   4  14   5    1.29    1.26
  -4  14  -5    0.95    1.21
   4  14   6    7.40    1.25
   4  14   6    5.16    1.13
  -4 -14   6    6.47    2.11
  -4  14  -6    4.71    1.17
  -4 -14   7   26.22    1.94
  -4  14  -7   15.53    1.31
  -4  14  -8    1.58    0.51
   4 -15   7    5.46    1.21
   4  15  -6    2.12    1.04
   4 -15   6    5.50    1.83
  -4  15   6    4.80    0.98
   4  15  -5    2.69    1.25
   4  15  -5    4.39    1.07
   4  15  -4    9.07    1.49
   4  15  -4    9.93    1.26
  -4  15   4    8.92    1.43
  -4  15   3    5.52    2.61
   4  15  -3    5.65    2.04
   4  15  -3    4.53    1.40
  -4  15   3    4.82    1.94
   4  15  -3    3.23    1.12
  -4  15   3    3.88    1.69
  -4  15   3    3.83    1.29
  -4  15   2   30.84    3.39
  -4  15   2   31.98    2.53
   4  15  -2   32.72    2.14
  -4  15   2   30.94    2.29
  -4  15   2   33.05    2.67
   4  15  -2   37.41    2.39
   4  15  -2   32.98    2.96
   4  15  -1  210.30   11.66
  -4  15   1  242.55   11.90
   4  15  -1  197.62   10.98
  -4  15   1  254.51   11.24
   4  15  -1  235.11   11.10
  -4  15   1  237.08   11.10
   4  15   0    6.24    2.31
  -4  15   0    8.93    2.37
  -4  15   0    9.48    1.63
   4  15   1  214.55   12.55
  -4  15  -1  241.64   12.48
  -4  15  -1  237.55   12.00
  -4  15  -1  261.74   11.98
  -4  15  -1  245.06   11.90
   4  15   2   38.02    3.58
  -4  15  -2   32.25    2.33
  -4  15  -2   34.03    2.39
  -4  15  -2   35.28    2.34
  -4  15  -2   34.17    2.95
   4  15   2   35.35    2.72
  -4  15  -3    4.96    1.37
   4  15   3    6.09    1.86
   4  15   3    4.33    2.59
  -4  15  -3    4.09    1.96
  -4  15  -3    6.80    1.21
  -4  15  -3    4.62    1.38
  -4  15  -4   11.14    1.44
   4  15   4    9.28    1.56
   4  15   4    7.34    1.48
  -4  15  -4    9.73    1.47
   4  15   5    2.34    1.29
  -4  15  -5    4.93    1.21
   4  15   6    3.78    0.96
  -4 -15   6    4.50    1.88
   4  15   6    3.23    1.12
  -4  15  -6    3.93    1.03
  -4 -15   7    5.26    1.22
   4 -16   7    2.87    0.79
   4 -16   6    0.87    1.48
   4  16  -6    2.49    0.90
  -4  16   5    1.61    1.02
   4  16  -5    2.76    1.13
  -4  16   4    1.89    1.15
   4  16  -4    1.58    1.28
  -4  16   4    2.56    1.17
   4  16  -3   19.56    1.66
  -4  16   3   21.69    2.34
   4  16  -3   23.76    1.87
  -4  16   3   22.06    1.82
  -4  16   2   10.38    1.44
   4  16  -2   13.38    2.32
  -4  16   2   12.18    2.71
   4  16  -2    9.09    1.33
   4  16  -2    8.43    1.33
  -4  16   2   11.61    1.80
   4  16  -2   13.76    1.60
  -4  16   2   11.92    1.94
   4  16  -1   12.90    2.49
  -4  16   1   16.07    2.68
  -4  16   1   17.82    1.89
  -4  16   1   18.28    1.99
  -4  16   1   15.65    1.54
  -4  16   0   12.70    1.70
  -4  16   0   12.40    1.76
   4  16   0   11.12    2.54
  -4  16   0   10.05    2.43
   4  16   1   21.63    2.15
   4  16   1   16.32    2.79
  -4  16  -1   10.81    2.34
  -4  16  -1   18.11    1.77
  -4  16  -1   15.08    1.80
   4  16   1   13.76    1.67
   4  16   2    9.42    1.58
  -4  16  -2   11.05    2.21
   4  16   2   12.30    2.73
  -4  16  -2   11.76    1.58
   4  16   2   13.71    1.99
  -4  16  -2   12.29    1.65
  -4  16  -2   13.06    1.52
   4  16   3   19.91    1.92
  -4  16  -3   21.34    1.82
  -4  16  -3   21.03    1.86
   4  16   3   20.51    2.29
  -4  16  -3   21.34    1.69
   4  16   4    1.09    1.41
   4  16   4    1.42    1.22
  -4  16  -4    0.26    1.20
  -4  16  -4    2.82    1.29
   4  16   5    1.66    1.23
  -4  16  -5    0.90    1.11
  -4  16  -5    0.72    1.16
  -4  16  -6    2.07    0.88
  -4 -16   6    1.80    1.59
   4  16   6    2.02    0.82
  -4 -16   7    2.94    0.88
   4 -17   6    1.87    1.19
  -4  17   5    1.76    0.90
   4  17  -5    2.75    1.02
  -4  17   4    1.96    1.04
   4  17  -4    0.92    1.16
  -4  17   4    0.36    1.01
   4  17  -3    9.26    1.47
  -4  17   3    7.83    1.84
  -4  17   3    7.31    1.35
  -4  17   3    9.05    1.32
  -4  17   2    2.24    1.58
  -4  17   2    3.36    1.79
   4  17  -2    2.88    1.12
  -4  17   2    4.03    1.20
  -4  17   1   22.16    2.09
  -4  17   1   25.26    2.20
  -4  17   1   20.19    1.96
  -4  17   1   20.80    1.69
  -4  17   0  138.21    7.24
  -4  17   0  146.97    7.32
  -4  17  -1   20.85    1.97
   4  17   1   25.72    2.29
  -4  17  -1   20.52    1.88
   4  17   1   21.29    1.81
   4  17   2    2.28    1.31
   4  17   2   -0.11    1.78
  -4  17  -2    2.50    1.21
  -4  17  -2    1.54    1.44
   4  17   3    7.11    1.42
  -4  17  -3    8.90    1.42
   4  17   3    6.71    1.91
  -4  17  -3    8.45    1.18
  -4  17  -3    6.34    1.39
  -4  17  -4    2.91    1.17
   4  17   4    1.63    1.12
  -4  17  -4    0.89    1.15
  -4  17  -5    2.13    1.00
  -4  17  -5    2.95    1.06
   4  17   5    0.64    0.91
   4  17   6    1.99    0.67
  -4  17  -6    1.28    0.86
  -4 -17   6    1.09    1.23
   4 -18   6    7.07    0.91
   4 -18   5   -1.22    1.43
  -4  18   4    2.06    0.93
  -4  18   4    2.13    0.98
  -4  18   3   10.07    1.39
  -4  18   3   13.57    1.34
  -4  18   2    4.73    1.72
  -4  18   2    4.80    1.49
  -4  18   2    6.34    1.15
  -4  18   1    5.72    1.71
  -4  18   1    7.62    1.61
  -4  18   1    6.50    1.09
  -4  18   1    6.23    1.43
   4  18  -1    5.43    1.27
  -4  18   0   22.11    1.93
  -4  18   0   20.44    1.94
  -4  18  -1    5.74    1.46
   4  18   1    8.15    1.75
  -4  18  -1    5.63    1.36
   4  18   1    7.71    1.22
  -4  18  -2    5.38    1.42
   4  18   2    5.72    1.80
   4  18   2    6.38    1.28
  -4  18  -2    6.70    1.23
  -4  18  -3   12.45    1.52
   4  18   3   12.28    1.42
  -4  18  -4   -0.02    1.11
   4  18   4    0.77    0.95
  -4  18  -5    1.72    0.94
  -4 -18   5    0.72    1.53
   4  18   5    2.29    0.80
  -4  18  -6    4.05    0.68
   4  18   6    5.83    0.58
   4 -19   5    0.77    1.02
  -4  19   3    0.39    0.87
  -4  19   3    0.77    1.03
  -4  19   2    3.53    1.54
  -4  19   2    5.08    0.98
  -4  19   1    3.78    1.23
   4  19  -1    1.24    1.06
  -4  19   1    4.11    1.53
  -4  19   0   16.49    1.76
  -4  19   0   17.32    1.69
   4  19   0   18.77    1.66
  -4  19   0   19.72    1.91
   4  19   0   19.27    1.93
   4  19   1    2.84    0.93
  -4  19  -1    4.43    1.20
   4  19   1    4.58    1.57
  -4  19  -1    5.93    1.33
   4  19   2    4.69    1.01
  -4  19  -2    5.29    1.09
   4  19   2    4.21    1.61
  -4  19  -2    4.92    1.29
   4  19   3    2.62    0.95
  -4  19  -3    1.38    1.11
   4  19   4    2.62    0.84
  -4  19  -4    1.96    0.96
  -4 -19   5    0.22    1.15
   4  19   5    1.60    0.60
  -4  20   3    2.90    0.88
  -4  20   2    0.32    1.26
   4  20  -1    5.65    0.98
  -4  20   1    7.01    1.21
  -4  20   1    6.18    1.41
   4  20  -1    5.89    1.37
  -4  20   0   11.61    1.33
   4  20   0    8.65    1.22
   4  20   0    8.81    1.51
  -4  20   0   11.80    1.53
  -4  20  -1    6.16    1.11
   4  20   1    5.70    1.12
   4  20   1    5.72    1.45
  -4  20  -1    8.12    1.40
  -4  20  -2    1.40    0.83
   4  20   2    1.36    0.74
   4  20   2   -0.67    1.33
   4  20   3    2.73    0.75
   4  20   4   15.35    1.02
   4  20   4   13.23    1.04
  -4  21   3    1.47    0.61
   4  21  -1    1.09    0.64
  -4  21   1    1.46    0.91
   4  21  -1    1.34    1.04
  -4  21   1    1.85    1.08
  -4  21   0    5.87    1.01
   4  21   0    3.68    0.86
  -4  21   0    7.12    1.19
   4  21   0    4.71    1.18
  -4  21  -1   -0.32    0.77
   4  21   1    1.16    0.82
   4  21   1    0.16    1.14
  -4  21  -1    1.33    1.01
   4  21   2    1.01    0.76
  -4  22   1    3.08    0.69
   4  22   0    3.87    0.56
  -4  22   0    4.08    0.70
  -4  22  -1    1.79    0.50
   4  22   1    1.55    0.57
   4  22   2    1.35    0.50
  -5   0   0   13.08    1.07
  -5   0   1   35.48    2.14
   5   0   1   34.83    2.10
  -5   0   1   36.86    2.20
  -5   0   2    8.72    1.74
   5   0   2   11.13    1.77
  -5   0   2    8.92    1.88
  -5   0   3   15.09    2.06
   5   0   3   12.85    2.08
   5   0   3   14.42    2.38
  -5   0   3   13.16    2.24
  -5   0   3   11.99    1.69
   5   0   4    2.29    2.00
  -5   0   4    3.35    1.99
   5   0   4    0.53    2.27
  -5   0   4   -0.36    1.43
  -5   0   4    0.81    2.16
  -5   0   5    1.30    2.09
   5   0   5    1.43    2.24
   5   0   5    1.61    2.54
  -5   0   5    3.50    2.35
   5   0   6    2.21    1.54
  -5   0   6    1.07    1.49
   5   0   6    1.02    2.47
  -5   0   6    0.16    2.32
  -5   0   6    1.65    1.43
  -5   0   6    1.53    1.32
   5   0   6   -0.76    2.71
  -5   0   7    0.74    1.48
   5   0   7    1.85    2.42
  -5   0   7    1.34    2.40
  -5   0   7    1.76    1.32
   5   0   7    3.01    2.87
   5   0   7   -1.02    1.68
  -5   0   7    0.95    1.65
  -5   0   8    3.97    1.24
   5   0   8    1.62    1.56
  -5   0   8    2.57    1.50
  -5   0   9    3.06    1.14
   5   0   9    0.64    1.11
  -5   1   9   10.07    1.06
  -5   1   9   13.92    1.32
   5  -1   9   12.32    1.35
  -5   1   8   10.69    1.46
  -5   1   8   10.83    1.62
  -5   1   7   19.87    1.84
  -5   1   7   23.40    2.05
   5  -1   7   21.59    2.17
  -5   1   7   20.36    1.93
  -5   1   7   17.42    2.77
   5  -1   7   21.87    3.12
  -5   1   6    4.84    2.39
   5  -1   6    7.49    2.59
  -5   1   6    6.84    1.39
  -5   1   6    6.30    1.58
   5  -1   6    5.96    1.72
  -5   1   6    4.89    1.56
  -5   1   6    4.83    1.46
   5  -1   5    4.20    2.31
  -5   1   5    2.76    2.16
   5  -1   4   41.73    3.15
  -5   1   4   36.97    2.91
  -5   1   3   50.65    3.66
  -5   1   3   55.32    3.36
   5  -1   3   61.52    3.78
  -5   1   3   61.15    3.58
  -5   1   2   52.16    3.08
   5  -1   2   49.77    3.13
  -5   1   1  418.80   19.51
  -5   1   1  402.18   19.46
   5   1   0   85.11    4.05
  -5   1   0   84.52    4.07
  -5  -1   1  406.43   18.50
   5   1   1  375.88   18.42
  -5  -1   2   40.39    2.89
   5   1   2   46.58    3.10
   5   1   2   43.92    2.80
  -5  -1   2   46.81    2.96
   5   1   3   57.08    3.74
  -5  -1   3   56.04    3.77
  -5  -1   3   57.57    3.39
  -5  -1   3   60.43    3.75
   5   1   3   54.25    3.55
  -5  -1   4   34.07    3.24
   5   1   4   38.40    3.29
  -5  -1   4   34.52    2.66
   5   1   4   40.32    3.03
  -5  -1   4   39.59    3.15
   5   1   5    0.80    2.40
  -5  -1   5   -0.26    2.37
  -5  -1   5    0.67    1.53
  -5  -1   5    4.61    2.24
   5   1   5    2.95    2.13
   5   1   6    5.06    1.57
  -5  -1   6    5.61    1.62
  -5  -1   6    5.56    1.38
  -5  -1   6    5.79    1.51
  -5  -1   6    5.04    2.51
   5   1   6    4.38    2.41
   5   1   6    5.28    2.74
  -5  -1   6    7.59    2.69
   5   1   7   22.71    2.08
  -5  -1   7   20.43    2.14
  -5  -1   7   18.86    1.96
  -5  -1   7   19.80    1.79
   5   1   7   20.20    2.80
  -5  -1   7   19.58    3.07
   5   1   7   23.55    3.29
  -5  -1   8   10.15    1.39
   5   1   8   13.23    1.68
  -5  -1   8   12.46    1.72
  -5  -1   9   13.51    1.42
  -5   2   9    4.24    0.91
   5  -2   9    5.47    1.19
  -5   2   8   11.22    1.42
  -5   2   8   11.67    1.53
   5  -2   8   10.05    1.80
  -5   2   7    2.17    1.32
  -5   2   7    2.09    1.47
  -5   2   7    3.20    2.12
   5  -2   7    0.64    2.65
  -5   2   7   -2.06    1.53
   5  -2   7    1.57    1.75
  -5   2   6   12.10    1.50
  -5   2   6   12.93    1.70
  -5   2   6    9.67    1.63
   5  -2   6   14.44    1.91
   5  -2   6   13.98    2.85
  -5   2   6   12.13    2.42
  -5   2   5    6.58    2.16
   5  -2   5    9.51    2.48
  -5   2   5    7.34    1.28
   5  -2   4   61.17    4.07
  -5   2   4   58.03    3.80
  -5   2   3   50.67    2.92
   5  -2   3   48.66    3.17
  -5   2   2  473.05   22.60
  -5   2   1 4886.47  229.88
  -5   2   1 4869.86  229.91
   5   2   0 1077.28   50.80
  -5   2   0 1076.88   50.81
   5   2   1 4850.51  232.86
  -5  -2   1 5134.58  232.84
   5   2   1 4836.63  232.85
   5   2   1 4929.97  232.84
   5   2   2  485.24   23.52
  -5  -2   2  502.74   23.59
   5   2   2  493.90   23.59
  -5  -2   3   48.01    3.37
   5   2   3   46.24    3.14
  -5  -2   3   44.60    2.93
   5   2   3   50.31    3.32
  -5  -2   3   50.34    3.35
   5   2   4   61.24    3.77
  -5  -2   4   55.12    3.90
   5   2   4   58.95    3.94
  -5  -2   4   56.23    3.52
  -5  -2   4   59.94    4.05
   5   2   5    3.91    2.14
  -5  -2   5    7.55    2.33
  -5  -2   5    7.55    1.64
   5   2   5    7.32    2.55
  -5  -2   5    9.83    2.63
  -5  -2   6   12.35    1.77
   5   2   6   11.57    1.68
   5   2   6   10.51    2.40
  -5  -2   6   15.39    2.84
  -5  -2   6   13.29    1.68
  -5  -2   6   14.04    1.58
   5   2   6   18.28    2.97
  -5  -2   6   14.55    3.00
   5   2   7   -0.40    1.60
  -5  -2   7    1.35    1.64
  -5  -2   7    1.89    1.27
  -5  -2   7    0.96    1.48
  -5  -2   7    4.26    2.61
   5   2   7    4.77    2.18
  -5  -2   8   10.39    1.34
   5   2   8   10.96    1.58
  -5  -2   8   11.34    1.77
  -5  -2   9    4.73    1.24
  -5   3   9    0.58    0.85
   5  -3   9    0.29    1.13
  -5   3   8    6.28    1.32
  -5   3   8    5.92    1.36
  -5   3   7   44.85    3.73
   5  -3   7   45.25    4.23
  -5   3   7   61.04    3.17
   5  -3   7   58.26    3.38
  -5   3   7   48.99    3.09
  -5   3   7   47.77    3.07
   5  -3   7   56.00    4.69
   5  -3   6   15.87    2.96
  -5   3   6   10.61    2.22
  -5   3   6    8.07    1.54
   5  -3   6    9.28    1.94
  -5   3   6   10.84    1.47
  -5   3   6    9.07    1.57
  -5   3   6    9.18    1.62
   5  -3   6    8.57    3.32
   5  -3   5   28.51    3.07
  -5   3   5   22.28    2.47
  -5   3   5   22.16    1.84
  -5   3   5   22.68    1.92
  -5   3   5   25.43    1.94
  -5   3   5   23.97    1.81
   5  -3   5   24.36    3.40
  -5   3   4   47.72    3.32
   5  -3   4   50.34    3.68
   5  -3   3   21.24    1.41
  -5   3   3   33.69    2.27
  -5   3   2   81.64    4.37
  -5   3   2   84.38    4.56
  -5   3   1   87.47    4.57
  -5   3   1   91.26    4.65
   5   3   0   46.55    2.72
  -5   3   0   54.11    2.72
   5   3   1   82.75    4.03
   5   3   1   80.33    4.05
   5   3   1   84.75    4.14
   5   3   2   90.67    4.38
  -5  -3   2   75.52    4.48
   5   3   2   76.34    4.46
   5   3   2   85.80    4.46
   5   3   3   29.35    2.32
   5   3   3   28.20    2.57
  -5  -3   3   29.21    2.72
  -5  -3   3   26.75    2.20
  -5  -3   4   42.67    3.39
   5   3   4   38.14    2.84
  -5  -3   4   32.28    3.25
  -5  -3   4   36.09    2.71
   5   3   4   39.59    3.22
  -5  -3   5   19.68    2.00
  -5  -3   5   21.69    2.15
   5   3   5   24.27    2.92
  -5  -3   5   19.70    2.94
   5   3   5   18.72    2.35
  -5  -3   5   23.56    2.92
   5   3   6    9.28    1.64
  -5  -3   6   11.91    1.84
  -5  -3   6    8.40    1.49
  -5  -3   6   10.55    1.60
  -5  -3   6   10.42    3.01
   5   3   6   14.02    2.71
   5   3   6   10.58    2.25
  -5  -3   6   11.86    2.66
  -5  -3   7   36.40    2.58
  -5  -3   7   43.99    2.79
   5   3   7   36.65    3.40
  -5  -3   7   45.37    4.00
  -5  -3   7   49.69    2.94
   5   3   7   50.56    2.85
  -5  -3   8    4.75    1.19
  -5  -3   8    8.18    1.67
   5   3   8    5.15    1.42
  -5  -3   9    0.19    1.15
  -5   4   9    1.91    0.83
   5  -4   9   -1.29    1.16
  -5   4   8    5.62    1.32
   5  -4   8    6.11    1.70
   5  -4   7   16.46    3.12
  -5   4   7   12.75    2.27
  -5   4   7   10.56    1.63
   5  -4   7   13.76    1.98
  -5   4   7   10.96    1.64
   5  -4   7   14.26    3.49
  -5   4   6  224.54   11.33
   5  -4   6  239.27   11.82
  -5   4   6  202.89   10.72
   5  -4   6  216.02   10.90
  -5   4   6  224.34   10.77
  -5   4   6  221.50   10.75
   5  -4   6  250.87   12.11
  -5   4   5  157.58    8.32
   5  -4   5  183.57    8.91
  -5   4   5  147.57    7.83
   5  -4   5  154.33    8.02
  -5   4   5  158.11    7.89
  -5   4   5  163.86    7.88
  -5   4   5  162.39    7.89
   5  -4   5  178.01    9.04
   5  -4   4   27.95    3.08
  -5   4   4   26.67    2.30
  -5   4   3  125.56    6.45
  -5   4   2  335.90   15.69
  -5   4   2  314.67   15.55
   5   4  -1  260.91   12.20
  -5   4   1  248.30   12.15
  -5   4   1  250.87   12.24
   5   4   0  360.99   17.71
  -5   4   0  382.80   17.72
   5   4   1  260.09   12.39
   5   4   1  268.24   12.45
  -5  -4   1  254.21   12.37
  -5   4  -1  252.80   12.41
   5   4   2  340.71   15.96
   5   4   2  331.88   16.02
  -5  -4   2  334.81   16.03
   5   4   2  321.33   15.94
   5   4   3  133.98    6.77
   5   4   3  128.33    6.85
  -5  -4   3  134.06    7.04
   5   4   4   25.30    2.29
  -5  -4   4   23.58    2.83
  -5  -4   4   25.57    2.18
   5   4   4   24.20    2.62
  -5  -4   4   25.24    2.94
   5   4   5  139.93    7.54
  -5  -4   5  138.98    7.70
  -5  -4   5  159.56    7.64
   5   4   5  165.59    8.10
  -5  -4   5  175.50    8.59
  -5  -4   5  174.78    8.54
   5   4   5  157.74    8.23
  -5  -4   5  155.07    8.03
   5   4   6  238.80   11.34
  -5  -4   6  226.81   11.68
   5   4   6  206.10   10.66
  -5  -4   6  198.26   10.81
   5   4   6  231.03   10.60
  -5  -4   6  213.90   10.71
  -5  -4   6  222.39   10.69
  -5  -4   6  203.97   11.12
  -5  -4   6  255.47   11.81
   5   4   7   16.45    2.35
  -5  -4   7   16.21    3.01
   5   4   7   11.24    1.63
  -5  -4   7   11.86    2.00
  -5  -4   7   11.90    1.39
  -5  -4   8    6.97    1.70
  -5  -4   9   -0.24    1.18
   5  -5   9    3.86    1.17
  -5   5   9    4.44    0.86
  -5   5   8   13.03    1.46
   5  -5   8   13.19    1.87
   5  -5   7   15.53    2.04
  -5   5   7   10.96    1.53
  -5   5   7   12.07    1.61
   5  -5   7   10.71    3.48
  -5   5   7    9.49    2.11
   5  -5   7   11.10    3.01
   5  -5   6  204.00   10.50
  -5   5   6  177.09    9.83
  -5   5   6  181.82    9.20
  -5   5   6  191.73    9.28
   5  -5   6  191.40    9.52
  -5   5   6  191.43    9.31
  -5   5   6  184.53    9.33
   5  -5   6  214.83   10.82
  -5   5   5    3.00    1.25
  -5   5   5    2.73    1.27
   5  -5   5    1.81    1.77
  -5   5   5    4.34    1.31
   5  -5   5    5.04    3.00
  -5   5   5    4.70    1.78
   5  -5   5    2.66    2.70
   5  -5   4   41.24    3.23
  -5   5   4   41.46    2.48
  -5   5   3  126.23    6.63
  -5   5   3  118.37    6.26
  -5   5   2   91.92    5.10
  -5   5   2   91.63    4.81
  -5   5   1   18.27    1.62
  -5   5   1   23.06    1.88
   5   5  -1   20.40    1.72
  -5   5   0  140.58    6.51
   5   5   0  121.64    6.48
   5   5   1   18.69    1.53
   5   5   1   18.38    1.75
  -5   5  -1   21.54    1.65
   5   5   2   78.80    4.27
   5   5   2   88.87    4.46
  -5  -5   2   74.43    4.44
   5   5   3  112.37    5.81
   5   5   3  115.00    6.00
  -5  -5   3  103.18    6.07
  -5  -5   4   33.52    3.32
  -5  -5   4   30.64    2.54
   5   5   4   37.19    2.65
  -5  -5   4   34.21    3.26
   5   5   5    4.64    1.82
  -5  -5   5    4.25    2.58
   5   5   5    2.66    1.21
  -5  -5   5    3.42    1.34
  -5  -5   5    2.33    1.73
  -5  -5   5    5.29    1.77
  -5  -5   5    4.57    2.71
   5   5   5    4.81    1.10
   5   5   6  187.26    8.87
  -5  -5   6  185.75    9.08
   5   5   6  175.94    8.77
  -5  -5   6  194.15    8.91
  -5  -5   6  193.44    9.97
  -5  -5   6  196.31   10.05
   5   5   6  183.62    9.45
  -5  -5   7   14.00    2.07
   5   5   7   10.32    1.40
  -5  -5   7   13.17    3.05
   5   5   7    9.78    2.11
  -5  -5   8   12.80    1.86
  -5  -5   9    4.48    1.26
   5  -6   9    9.59    1.25
  -5   6   9   11.59    0.99
  -5   6   8    4.25    1.22
   5  -6   8    6.06    1.63
   5  -6   7    3.23    3.36
   5  -6   7    2.91    1.92
  -5   6   7    1.69    1.38
   5  -6   7    0.29    2.74
  -5   6   7    1.13    1.75
  -5   6   6    4.54    1.09
   5  -6   6    5.73    2.05
  -5   6   6    4.22    1.44
   5  -6   6    7.27    3.61
   5  -6   6    9.04    3.11
  -5   6   6    3.34    1.91
   5  -6   5    1.85    2.69
  -5   6   5    2.12    1.76
  -5   6   5    2.79    1.01
  -5   6   5    0.84    1.11
   5  -6   5    0.75    1.83
  -5   6   5    1.37    1.17
  -5   6   5    0.96    1.26
   5  -6   5   -0.77    3.18
  -5   6   4   10.51    1.77
  -5   6   3   52.96    3.39
  -5   6   3   62.27    3.84
  -5   6   3   59.40    3.26
  -5   6   2   22.75    1.80
  -5   6   2   17.14    1.70
   5   6  -2   20.52    2.01
  -5   6   2   25.98    2.42
   5   6  -1  209.87    9.47
  -5   6   1  197.52    9.52
  -5   6   1  176.52    9.36
  -5   6   0   11.38    1.50
   5   6   0   11.69    1.44
  -5   6  -1  200.27    9.61
   5   6   1  206.54    9.66
   5   6   1  185.44    9.54
   5   6   2   24.85    2.19
   5   6   2   22.55    1.87
  -5  -6   2   19.64    2.22
  -5   6  -2   21.24    1.98
  -5  -6   3   68.94    4.14
   5   6   3   58.37    3.60
   5   6   3   62.74    3.46
   5   6   3   67.98    4.00
   5   6   4    7.40    1.69
  -5  -6   4    8.28    2.54
  -5  -6   4    7.96    1.69
   5   6   5    2.87    1.24
   5   6   5   -0.61    1.71
  -5  -6   5   -0.52    2.60
  -5  -6   5    2.06    1.27
  -5  -6   5   -0.06    1.76
   5   6   5    0.91    1.15
  -5  -6   5    2.68    1.64
  -5  -6   5    0.30    2.69
   5   6   5    2.11    1.10
   5   6   6    2.08    1.92
  -5  -6   6    7.94    3.06
  -5  -6   6    4.76    1.35
   5   6   6    4.68    1.27
  -5  -6   6    4.29    2.02
  -5  -6   6    6.39    3.04
  -5  -6   6    3.53    1.81
  -5  -6   7    2.10    1.96
   5   6   7    3.48    1.24
  -5  -6   7    3.87    2.82
   5   6   7    1.40    1.80
  -5  -6   7    3.29    2.66
  -5  -6   8    4.93    1.67
  -5  -6   9   14.22    1.41
  -5   7   9    3.47    0.76
   5  -7   9    2.94    1.05
  -5   7   8    2.29    1.12
   5  -7   8    1.85    1.55
  -5   7   7    9.31    1.55
   5  -7   7   14.69    2.15
   5  -7   6   14.96    2.40
   5  -7   6   19.44    3.89
  -5   7   6   17.65    1.75
  -5   7   6   16.62    1.48
   5  -7   6   12.08    3.28
  -5   7   6   15.72    2.21
  -5   7   5    7.06    1.23
   5  -7   5    9.40    3.29
   5  -7   5   10.19    3.01
  -5   7   5    8.23    1.83
  -5   7   5    7.57    1.32
  -5   7   5    9.70    1.40
  -5   7   4    4.54    1.52
   5   7  -3   20.16    2.10
  -5   7   3   16.69    1.81
  -5   7   3   17.17    1.85
  -5   7   3   18.20    2.55
   5   7  -2  175.42    9.11
  -5   7   2  186.91    8.89
  -5   7   2  180.74    9.04
  -5   7   2  182.05    9.30
   5   7  -1   19.82    1.88
  -5   7   1   20.90    2.09
  -5   7   0   66.30    3.60
   5   7   0   61.32    3.57
  -5   7  -1   22.63    1.91
   5   7   1   22.88    2.02
   5   7   2  166.67    8.34
  -5   7  -2  184.15    8.58
   5   7   2  166.99    8.51
   5   7   2  169.61    8.71
  -5   7  -3   18.83    2.04
   5   7   3   17.61    1.67
  -5  -7   3   15.04    2.44
   5   7   3   16.80    1.82
   5   7   3   17.06    2.23
  -5  -7   4    7.48    2.44
   5   7   4    4.68    1.59
   5   7   5    7.16    1.24
   5   7   5    4.68    1.77
  -5  -7   5    7.78    2.94
   5   7   5    8.15    1.46
  -5  -7   5    6.92    1.87
  -5  -7   5   10.17    2.74
   5   7   6   15.52    1.58
  -5  -7   6   16.53    2.41
  -5  -7   6   16.23    3.22
  -5  -7   6   12.69    2.22
   5   7   6   13.78    2.15
  -5  -7   6   22.52    3.57
   5   7   7    9.37    1.35
  -5  -7   7   14.52    2.07
  -5  -7   8    4.73    1.68
  -5  -7   9    4.53    1.12
  -5   8   9    3.17    0.68
   5  -8   9    1.90    0.93
  -5   8   8    1.87    1.07
   5  -8   8    4.44    1.52
  -5   8   7    8.33    1.40
   5  -8   7    9.93    2.12
  -5   8   6    1.28    1.37
  -5   8   6    2.84    1.13
   5  -8   6    1.72    2.10
   5   8  -6    4.30    2.22
   5  -8   6    3.98    3.41
   5  -8   6    5.09    3.10
  -5   8   6    1.76    1.69
  -5   8   5    5.39    1.23
   5   8  -5    2.50    2.04
   5  -8   5    4.09    2.94
  -5   8   5    3.89    1.70
   5  -8   5    7.01    3.47
   5   8  -4   20.79    2.29
  -5   8   4   21.92    2.89
  -5   8   4   19.61    1.99
  -5   8   4   20.26    1.64
  -5   8   4   20.30    1.69
  -5   8   3   93.06    4.77
   5   8  -3   95.21    5.08
  -5   8   3   80.66    4.84
  -5   8   3   93.21    5.37
   5   8  -2   30.82    2.35
  -5   8   2   26.16    2.04
  -5   8   2   26.02    2.04
  -5   8   2   29.50    2.74
   5   8  -1  242.30   11.71
  -5   8   1  233.35   11.79
  -5   8   0   16.65    1.35
  -5   8   0   15.21    1.80
   5   8   0   18.47    1.35
  -5   8  -1  220.86   11.23
   5   8   1  239.34   11.33
   5   8   2   29.25    1.99
  -5   8  -2   26.11    2.18
   5   8   2   30.71    2.51
   5   8   2   25.61    2.04
   5   8   3   91.28    4.73
  -5   8  -3   85.72    5.02
  -5  -8   3   91.88    5.29
   5   8   3   98.65    5.32
   5   8   3   87.85    4.93
   5   8   4   19.94    2.06
  -5   8  -4   21.32    2.30
   5   8   4   20.42    1.59
  -5  -8   4   21.39    2.84
   5   8   4   18.55    2.69
   5   8   4   21.95    1.86
   5   8   5    4.43    1.23
  -5   8  -5    6.58    2.17
  -5  -8   5    1.32    2.97
   5   8   5    4.06    1.69
  -5  -8   5    3.65    1.86
  -5  -8   5    4.59    2.67
   5   8   5    5.39    1.46
   5   8   6    2.19    1.28
  -5  -8   6    2.91    2.19
   5   8   6    2.05    1.25
  -5  -8   6    1.55    3.06
   5   8   6    1.82    1.67
  -5   8  -6    4.60    2.18
  -5  -8   6    0.37    1.81
   5   8   7    8.58    1.30
  -5  -8   7    8.83    2.10
  -5  -8   8    4.04    1.61
  -5   8  -9    2.47    0.74
  -5  -8   9    3.47    1.04
   5  -9   9    3.63    0.82
  -5   9   8    0.93    0.99
   5  -9   8    2.36    1.40
  -5   9   7    4.60    1.29
   5  -9   7    6.64    2.06
  -5   9   6    6.80    1.29
   5  -9   6    4.35    2.24
   5   9  -6    8.79    2.27
   5  -9   6    8.75    3.15
  -5   9   6    4.79    1.79
  -5   9   6    6.54    1.45
   5  -9   6    9.97    3.76
  -5   9   5   29.41    2.13
   5   9  -5   28.65    2.85
   5  -9   5   31.37    3.96
  -5   9   5   25.71    2.48
   5  -9   5   33.15    4.26
  -5   9   4   32.69    2.26
   5   9  -4   29.79    2.85
  -5   9   4   30.46    2.58
  -5   9   4   35.33    2.17
  -5   9   3   13.17    1.71
  -5   9   3   13.95    2.56
   5   9  -3    9.63    1.87
  -5   9   3   12.28    1.80
  -5   9   2    9.60    1.50
  -5   9   2   10.56    1.54
   5   9  -2   11.23    1.82
  -5   9   2    9.47    2.14
   5   9  -1  113.22    5.59
   5   9  -1  105.55    5.93
  -5   9   1  121.03    6.10
  -5   9   0   13.54    1.72
   5   9   0   11.71    1.22
  -5   9   0   12.60    1.20
   5   9   0   11.73    1.68
  -5   9  -1  115.59    5.66
   5   9   1  107.60    6.10
  -5   9  -1  117.87    6.01
   5   9   2   12.09    1.53
   5   9   2    8.52    1.58
   5   9   2   11.69    2.17
  -5   9  -2   10.37    1.71
   5   9   3   11.34    1.72
  -5  -9   3    9.77    2.33
   5   9   3   14.55    2.39
  -5   9  -3   14.35    1.83
   5   9   3   12.46    1.71
   5   9   4   29.15    2.47
  -5   9  -4   33.83    2.75
   5   9   4   31.88    2.24
   5   9   4   34.79    3.18
   5   9   4   26.97    1.99
   5   9   5   31.00    2.22
   5   9   5   25.10    1.91
  -5   9  -5   25.40    2.82
  -5  -9   5   31.29    3.93
   5   9   5   25.74    2.43
  -5  -9   6    8.57    2.34
   5   9   6    6.68    1.44
  -5  -9   6    5.91    2.05
  -5  -9   6    9.21    3.33
   5   9   6    5.28    1.81
   5   9   6    7.88    1.37
  -5   9  -6    5.21    2.07
  -5  -9   7    6.64    2.04
   5   9   7    4.31    1.21
  -5  -9   8    0.85    1.52
  -5  -9   9    4.50    0.90
  -5   9  -9    2.33    0.64
   5  10  -9    4.19    0.56
   5 -10   8    2.61    1.37
  -5  10   8    2.23    0.91
   5 -10   7    1.21    1.87
  -5  10   7    2.53    1.17
  -5  10   6   41.18    3.14
  -5  10   6   46.94    2.72
   5 -10   6   43.40    3.31
  -5  10   6   44.65    2.70
   5  10  -6   39.74    3.44
   5 -10   6   43.98    4.37
   5 -10   6   49.73    4.81
  -5  10   5   80.50    4.29
  -5  10   5   67.72    4.53
   5  10  -5   80.43    4.93
   5 -10   5   90.03    6.17
   5 -10   5   78.59    5.76
  -5  10   4    6.30    1.64
   5  10  -4    7.07    1.91
  -5  10   4    6.03    2.70
  -5  10   4    8.38    1.44
  -5  10   4    7.42    1.16
  -5  10   4    6.46    1.28
  -5  10   3   20.08    1.71
  -5  10   3   24.96    2.07
   5  10  -3   21.25    2.20
  -5  10   3   14.87    1.84
  -5  10   3   20.41    2.00
  -5  10   3   20.22    1.55
  -5  10   3   18.36    2.69
   5  10  -2    3.19    1.65
  -5  10   2    6.37    2.10
  -5  10   2    6.92    1.47
  -5  10   1    3.64    1.80
   5  10  -1    2.39    1.50
   5  10  -1    2.09    1.02
  -5  10   0   11.17    1.79
   5  10   0   15.93    1.84
   5  10   0   12.00    1.28
  -5  10   0   10.85    1.26
   5  10   1    2.80    1.77
  -5  10  -1    3.31    1.45
  -5  10  -1    1.60    0.97
   5  10   2    6.22    2.12
  -5  10  -2    4.65    1.59
   5  10   2    6.36    1.49
  -5  10  -3   19.07    2.12
   5  10   3   23.17    1.97
   5  10   3   19.84    1.96
   5  10   3   21.24    1.84
   5  10   3   23.93    2.76
   5  10   3   18.07    1.57
   5  10   4    5.93    1.63
   5  10   4    8.55    1.55
  -5  10  -4    6.72    1.91
   5  10   4    7.87    2.49
   5  10   4    8.14    1.31
   5  10   5   78.52    4.36
  -5 -10   5   69.90    4.88
   5  10   5   81.89    4.18
  -5  10  -5   75.74    4.89
  -5 -10   5   90.86    6.03
   5  10   5   76.61    4.65
   5  10   6   36.33    2.97
  -5 -10   6   43.74    3.23
   5  10   6   40.96    2.62
  -5  10  -6   35.38    3.23
  -5 -10   6   44.21    4.49
   5  10   6   42.32    2.51
  -5 -10   7    2.53    1.94
  -5 -10   8    4.18    1.43
  -5 -10   9    7.54    0.78
  -5  11   8    5.81    0.89
   5 -11   8    4.70    1.27
  -5  11   7    5.40    1.16
   5 -11   7    6.80    1.86
   5 -11   6   37.29    3.10
  -5  11   6   39.49    2.49
   5  11  -5   35.73    3.06
  -5  11   5   30.50    2.56
  -5  11   5   30.49    2.02
   5 -11   5   34.03    4.36
  -5  11   5   39.43    2.41
   5 -11   5   30.13    3.98
  -5  11   4    3.80    1.58
   5  11  -4    2.67    1.91
  -5  11   4    2.82    2.95
  -5  11   4    3.55    1.21
  -5  11   4    3.75    1.20
  -5  11   3   13.75    1.42
  -5  11   3   15.33    1.99
  -5  11   3   13.47    1.55
  -5  11   3   16.31    1.94
  -5  11   3   18.05    1.43
  -5  11   3   16.07    2.79
   5  11  -3   16.50    2.21
  -5  11   2   11.82    1.68
  -5  11   2    9.59    1.38
  -5  11   2   13.23    1.67
   5  11  -2   10.74    1.36
  -5  11   2   13.61    2.34
   5  11  -2   11.47    1.91
  -5  11   1   10.43    2.15
   5  11  -1    6.06    1.75
   5  11  -1    7.94    1.19
  -5  11   0   11.09    1.93
   5  11   0   13.79    2.01
  -5  11   0   13.18    1.35
   5  11   0   14.63    1.39
   5  11   1    5.48    1.97
  -5  11  -1    6.81    1.63
  -5  11  -1    8.74    1.13
   5  11   2   11.17    1.36
   5  11   2   12.42    1.73
   5  11   2   12.02    1.52
  -5  11  -2   11.36    1.29
  -5  11  -2   11.70    1.32
  -5  11  -2   10.55    1.83
   5  11   2    9.32    2.33
   5  11   3   16.07    1.75
   5  11   3   15.24    2.55
  -5  11  -3   16.39    1.41
  -5  11  -3   19.06    2.21
   5  11   3   15.82    1.93
   5  11   4    5.10    1.64
   5  11   4    3.25    1.50
  -5  11  -4    2.76    1.97
   5  11   4    1.84    2.48
   5  11   4    4.83    1.34
   5  11   5   37.35    2.25
  -5  11  -5   34.56    2.93
   5  11   5   30.08    2.59
  -5 -11   5   29.87    4.09
   5  11   6   36.79    2.46
   5  11   6   35.86    2.34
  -5 -11   6   37.39    3.13
   5  11   7    4.29    1.17
  -5 -11   7    5.02    1.96
  -5  11  -8    4.61    1.03
  -5 -11   8    8.13    1.38
   5 -12   8    8.13    1.14
  -5  12   7    3.51    1.04
   5 -12   7    5.77    1.73
  -5  12   6   45.86    2.78
   5 -12   6   48.21    3.35
  -5  12   5    4.84    1.14
  -5  12   5    5.12    1.31
  -5  12   5    4.39    1.39
   5  12  -5    4.73    1.98
   5 -12   5    4.16    3.48
   5 -12   5    6.04    3.16
   5  12  -4   11.11    2.28
  -5  12   4   13.53    3.13
  -5  12   4   13.85    1.44
  -5  12   4   13.61    1.49
  -5  12   3   17.19    3.00
   5  12  -3   16.54    2.20
  -5  12   3   17.00    1.72
  -5  12   3   18.72    2.18
  -5  12   3   15.39    2.01
  -5  12   3   17.91    1.49
  -5  12   3   16.20    1.58
  -5  12   2   18.38    1.90
  -5  12   2   15.39    1.60
   5  12  -2   16.00    1.35
  -5  12   2   18.17    1.91
  -5  12   2   16.58    1.35
   5  12  -2   17.36    1.56
  -5  12   2   17.59    2.66
   5  12  -2   16.23    2.12
   5  12  -1    6.79    1.28
  -5  12   1    7.89    2.02
   5  12  -1    8.35    1.88
  -5  12   1    7.19    1.42
  -5  12   1    6.24    1.24
  -5  12   0   18.31    2.22
   5  12   0   21.46    2.35
  -5  12   0   20.08    1.76
   5  12   0   20.13    1.72
  -5  12   0   21.39    1.64
   5  12   1    6.70    1.38
  -5  12  -1    6.83    1.19
  -5  12  -1    7.53    1.16
  -5  12  -1    5.60    1.27
   5  12   1    8.09    2.05
  -5  12  -1    6.48    1.72
   5  12   1    6.83    1.35
   5  12   2   18.51    1.61
   5  12   2   16.94    1.93
   5  12   2   14.43    1.71
  -5  12  -2   16.88    1.55
  -5  12  -2   16.15    1.49
   5  12   2   17.53    2.60
  -5  12  -2   14.50    2.03
   5  12   3   18.91    2.08
  -5  12  -3   14.26    2.08
   5  12   3   17.54    2.85
   5  12   3   16.93    1.81
  -5  12  -3   15.76    1.46
  -5  12  -4   13.81    2.27
   5  12   4   18.43    3.10
   5  12   5    6.40    1.41
  -5 -12   5    3.41    3.23
  -5  12  -5    6.40    2.03
  -5 -12   5    4.60    2.13
   5  12   6   51.04    2.92
  -5 -12   6   49.61    3.50
   5  12   6   45.05    2.77
  -5  12  -7    2.22    1.12
  -5 -12   7    4.82    1.82
   5  12   7    1.75    1.07
  -5  12  -8    7.82    0.99
  -5 -12   8    9.25    1.22
   5 -13   8    5.15    0.86
   5  13  -7    3.08    1.04
   5  13  -7    2.70    0.94
   5 -13   6   25.27    2.59
  -5  13   6   29.07    1.97
  -5  13   5   18.92    1.73
  -5  13   5   17.38    1.56
   5  13  -4    4.53    2.02
  -5  13   4    5.80    2.84
  -5  13   4    5.09    1.33
  -5  13   4    4.17    1.18
  -5  13   4    4.65    1.39
  -5  13   3    3.24    1.33
  -5  13   3    0.72    2.56
   5  13  -3   -0.86    1.90
   5  13  -3    1.26    1.02
  -5  13   3    2.55    1.93
  -5  13   3    1.47    1.09
   5  13  -3   -0.57    1.24
  -5  13   3    2.40    1.84
   5  13  -2  100.02    5.46
  -5  13   2  107.53    5.76
  -5  13   2  112.10    6.51
  -5  13   2  109.63    5.44
  -5  13   2  114.06    5.80
   5  13  -2  112.64    6.15
   5  13  -2  113.53    5.61
  -5  13   2  110.64    5.68
   5  13  -1   14.43    2.08
  -5  13   1   13.77    2.37
  -5  13   1   12.86    1.48
  -5  13   1   14.98    1.75
   5  13  -1   15.89    1.60
  -5  13   0    3.49    1.90
   5  13   0    5.54    2.04
  -5  13   0    0.18    1.32
   5  13   0    5.85    1.31
   5  13   1   13.46    1.64
  -5  13  -1   14.15    1.49
  -5  13  -1   12.82    1.99
   5  13   1   12.74    2.34
  -5  13  -1   13.27    1.55
   5  13   1   16.57    1.67
  -5  13  -1   12.34    1.47
  -5  13  -2  115.10    5.78
   5  13   2  117.43    5.91
   5  13   2  107.08    6.57
  -5  13  -2  108.32    5.82
   5  13   2  122.04    5.76
   5  13   2  120.68    5.94
  -5  13  -2   98.04    6.18
  -5  13  -2  106.31    5.72
   5  13   3    1.56    2.45
  -5  13  -3    2.84    1.87
  -5  13  -3    1.92    1.10
  -5  13  -3    0.97    1.29
   5  13   3    0.77    1.74
   5  13   3    3.33    1.50
  -5  13  -4    4.03    1.37
  -5  13  -4    4.75    1.94
   5  13   4    1.90    2.69
   5  13   5   15.56    1.60
   5  13   5   13.80    1.68
   5  13   6   27.44    1.89
  -5  13  -6   24.36    1.99
   5  13   6   25.91    1.94
  -5 -13   6   26.45    2.65
  -5  13  -7    5.30    1.13
   5  13   7    3.38    1.03
  -5  13  -7    3.26    1.00
  -5 -13   7    6.67    1.75
  -5  13  -8    1.59    0.71
  -5 -13   8    3.76    0.92
   5  14  -7    4.44    0.93
   5 -14   7    9.73    1.38
  -5  14   6    4.72    1.07
   5  14  -6    4.48    1.02
  -5  14   6    7.53    1.11
   5  14  -6    5.72    1.21
   5 -14   6    5.85    1.92
  -5  14   5    6.36    1.18
   5  14  -5    6.79    1.12
   5  14  -5    4.83    1.32
  -5  14   4   26.77    3.39
  -5  14   4   26.90    1.87
   5  14  -4   26.69    1.89
  -5  14   4   27.61    2.12
   5  14  -4   27.06    2.70
   5  14  -4   27.73    2.12
  -5  14   3   20.83    2.23
  -5  14   3   18.93    3.08
   5  14  -3   17.69    2.45
  -5  14   3   20.43    1.58
   5  14  -3   20.08    1.83
  -5  14   3   19.91    1.82
   5  14  -3   18.60    1.59
  -5  14   3   21.27    2.32
  -5  14   2   52.14    3.39
   5  14  -2   52.78    2.96
  -5  14   2   52.94    4.24
  -5  14   2   52.22    3.16
   5  14  -2   52.83    3.15
  -5  14   2   56.98    3.46
   5  14  -2   54.37    3.77
   5  14  -1    5.87    2.03
  -5  14   1    5.49    2.32
   5  14  -1    2.90    1.39
  -5  14   1    5.12    1.21
  -5  14   1    6.25    1.69
   5  14   0    5.24    1.32
  -5  14   0    1.98    1.49
   5  14   0    4.17    2.09
  -5  14   0    2.92    2.02
  -5  14  -1    6.90    2.08
   5  14   1    3.22    2.26
   5  14   1    3.67    1.44
  -5  14  -1    4.27    1.41
  -5  14  -1    5.32    1.33
  -5  14  -1    2.95    1.34
  -5  14  -2   58.38    3.25
   5  14   2   54.49    3.39
   5  14   2   58.77    3.29
  -5  14  -2   53.73    3.28
  -5  14  -2   53.98    3.24
   5  14   2   62.14    3.55
  -5  14  -2   48.61    3.76
   5  14   2   64.98    4.38
   5  14   3   22.68    2.34
  -5  14  -3   17.53    1.76
  -5  14  -3   15.16    2.33
   5  14   3   18.34    2.98
  -5  14  -3   18.30    1.68
   5  14   3   21.54    2.01
  -5  14  -3   22.05    1.82
   5  14   4   31.50    3.40
  -5  14  -4   28.06    2.06
  -5  14  -4   23.02    2.59
  -5  14  -5    6.58    1.34
   5  14   5    5.07    1.39
   5  14   5    6.56    1.40
   5  14   6    4.16    1.09
  -5 -14   6    4.57    2.02
  -5  14  -6    6.42    1.26
  -5  14  -6    4.49    1.14
   5  14   6    5.28    1.21
  -5  14  -7    4.43    0.93
  -5  14  -7    6.34    1.06
   5 -15   7    6.32    1.13
   5  15  -6    5.74    1.09
  -5  15   6    8.67    1.05
   5 -15   6    6.60    1.72
   5  15  -5    8.08    1.32
  -5  15   4   10.87    1.36
   5  15  -4    8.86    1.45
   5  15  -4    8.58    1.21
  -5  15   4   10.31    1.42
  -5  15   3    9.81    2.77
   5  15  -3    8.14    2.07
  -5  15   3    8.51    1.99
   5  15  -3    8.16    1.49
   5  15  -3    5.54    1.16
  -5  15   3    9.44    1.84
  -5  15   3    9.74    1.44
  -5  15   2   27.99    3.18
  -5  15   2   27.28    2.41
   5  15  -2   25.20    1.83
  -5  15   2   28.00    2.06
   5  15  -2   28.67    2.07
   5  15  -2   25.04    2.67
  -5  15   2   28.00    2.43
   5  15  -1   25.90    3.01
  -5  15   1   30.71    3.20
  -5  15   1   37.40    2.45
   5  15  -1   28.23    2.25
  -5  15   1   29.54    2.11
   5  15   0   14.34    2.57
  -5  15   0   15.13    2.50
  -5  15   0   18.47    1.91
  -5  15   0   19.61    1.86
   5  15   1   28.10    3.20
  -5  15  -1   28.20    2.96
  -5  15  -1   36.82    2.39
   5  15   1   27.27    2.27
  -5  15  -1   33.45    2.38
   5  15   2   30.91    3.31
  -5  15  -2   29.49    2.15
   5  15   2   31.27    2.30
  -5  15  -2   29.33    2.19
  -5  15  -2   27.48    2.13
  -5  15  -2   27.99    2.75
   5  15   2   26.90    2.44
  -5  15  -3    9.54    1.45
   5  15   3    8.52    2.02
   5  15   3    8.46    2.66
  -5  15  -3    5.98    1.97
  -5  15  -3    7.56    1.52
  -5  15  -3    8.99    1.30
  -5  15  -4   10.52    1.43
   5  15   4    8.69    1.53
  -5  15  -5    7.17    1.27
   5  15   5    6.58    1.35
  -5  15  -6    2.87    1.05
  -5 -15   6    6.67    1.85
   5  15   6    5.68    1.03
   5  15   6    6.91    1.17
  -5 -15   7    5.05    1.21
   5 -16   7    2.64    0.71
   5  16  -6    1.61    0.88
   5 -16   6   -0.04    1.40
   5  16  -5    0.89    1.09
  -5  16   5    0.38    0.97
  -5  16   4    0.91    1.10
   5  16  -4    1.18    1.26
  -5  16   4    1.69    1.13
  -5  16   3    2.62    1.29
  -5  16   3    4.29    1.26
   5  16  -3    2.54    1.40
  -5  16   3    1.79    1.78
   5  16  -2    3.81    2.07
  -5  16   2    4.24    2.44
  -5  16   2    0.85    1.73
   5  16  -2    3.01    1.48
  -5  16   2    2.93    1.24
  -5  16   2    1.08    1.70
  -5  16   1    6.64    1.24
   5  16  -1    4.50    2.14
  -5  16   1    6.42    2.43
  -5  16   1    6.77    1.53
  -5  16   1    8.30    1.79
  -5  16   1    6.15    1.66
  -5  16   0   26.20    2.92
   5  16   0   33.23    3.16
  -5  16   0   24.78    2.25
  -5  16   0   33.91    2.34
  -5  16  -1    3.54    1.55
  -5  16  -1    5.50    1.43
   5  16   1    6.82    1.77
   5  16   1    8.42    2.50
  -5  16  -1    4.65    2.09
  -5  16  -2    0.03    1.45
  -5  16  -2    3.02    1.96
   5  16   2    5.70    2.53
   5  16   2    3.74    1.85
  -5  16  -2    3.45    1.33
  -5  16  -2    3.96    1.30
  -5  16  -3    1.71    1.12
  -5  16  -3    4.23    1.41
  -5  16  -3    2.95    1.31
   5  16   3   -1.33    1.90
   5  16   3    0.69    1.33
  -5  16  -4    0.70    1.27
   5  16   4    1.35    1.23
  -5  16  -4    2.31    1.22
   5  16   5    1.23    1.22
  -5  16  -5    1.40    1.12
  -5  16  -6    0.30    0.87
  -5 -16   6    1.12    1.53
   5  16   6    1.86    0.80
  -5 -16   7    1.49    0.76
   5 -17   6    4.73    1.21
  -5  17   5    4.97    0.93
   5  17  -5    3.21    1.03
   5  17  -4    1.81    1.18
  -5  17   4    1.94    1.03
  -5  17   4    1.33    1.02
   5  17  -3    8.21    1.39
  -5  17   3    5.79    1.79
  -5  17   3    8.71    1.38
  -5  17   3    5.49    1.21
  -5  17   2    4.54    1.66
  -5  17   2    3.18    1.38
  -5  17   2    3.65    1.18
  -5  17   2    3.97    1.61
  -5  17   1   24.28    2.17
  -5  17   1   21.78    2.19
  -5  17   1   21.93    2.01
  -5  17   1   23.02    1.73
  -5  17   0   61.84    3.52
  -5  17   0   54.82    3.46
  -5  17  -1   21.13    2.01
   5  17   1   25.86    2.23
  -5  17  -1   20.81    1.90
   5  17   1   19.36    1.77
   5  17   2    4.05    1.32
   5  17   2    4.50    1.71
  -5  17  -2    4.02    1.26
  -5  17  -2    2.06    1.47
   5  17   3    5.26    1.33
  -5  17  -3    7.74    1.37
   5  17   3    6.01    1.80
  -5  17  -3    7.18    1.17
  -5  17  -3    5.76    1.49
  -5  17  -4    1.15    1.15
   5  17   4    0.41    1.09
  -5  17  -4    0.85    1.24
   5  17   5    2.09    0.95
  -5  17  -5    3.98    1.02
  -5  17  -5    3.96    1.10
  -5  17  -6    1.19    0.87
  -5 -17   6    3.63    1.25
   5  17   6    2.09    0.67
   5 -18   5   -1.58    1.34
  -5  18   4    2.49    0.92
  -5  18   3    6.11    1.25
  -5  18   3    7.29    1.13
  -5  18   2    2.03    1.56
  -5  18   2    3.00    1.48
  -5  18   2    1.44    1.03
  -5  18   1   11.15    1.72
   5  18  -1    9.11    1.40
  -5  18   1    9.55    1.57
  -5  18   1   10.70    1.67
  -5  18   1   12.78    1.23
  -5  18   0    7.05    1.49
  -5  18   0   10.83    1.59
   5  18   1    9.47    1.33
   5  18   1   14.55    1.83
  -5  18  -1   12.69    1.52
  -5  18  -1   10.21    1.60
   5  18   2    1.68    1.16
   5  18   2    1.30    1.62
  -5  18  -2    2.77    1.15
  -5  18  -2    1.28    1.36
  -5  18  -3    4.84    1.39
  -5  18  -3    6.61    1.04
   5  18   3    6.03    1.24
  -5  18  -4    0.41    1.13
   5  18   4    2.27    0.98
  -5  18  -5    1.14    0.96
   5  18   5    2.09    0.77
   5  18   6    3.07    0.48
  -5  18  -6    1.54    0.59
   5 -19   5    3.69    1.00
  -5  19   3    4.96    1.05
  -5  19   2    1.27    1.42
  -5  19   1   11.30    1.70
  -5  19   1   12.29    1.51
   5  19  -1   13.95    1.33
   5  19   0   12.11    1.68
  -5  19   0    9.11    1.63
  -5  19   0    9.71    1.40
  -5  19   0    9.39    1.56
  -5  19  -1   15.82    1.60
   5  19   1   11.31    1.19
  -5  19  -1   15.84    1.49
   5  19   1   13.40    1.79
  -5  19  -2    3.21    1.27
  -5  19  -2    2.12    1.01
   5  19   2    1.05    1.51
   5  19   2    1.25    0.93
  -5  19  -3    3.83    1.17
   5  19   3    3.37    0.96
  -5  19  -4    3.90    1.00
   5  19   4    4.56    0.87
   5  19   5    6.78    0.69
  -5  19  -5    4.28    0.77
  -5 -19   5    6.28    1.13
   5 -20   4    9.80    1.23
  -5  20   3    3.22    0.85
  -5  20   2   -0.07    1.23
  -5  20   1    3.15    1.32
   5  20  -1    3.99    1.31
   5  20  -1    2.08    0.87
  -5  20   1    4.02    1.13
   5  20   0    5.44    1.38
  -5  20   0    7.41    1.38
   5  20   0    4.51    1.04
  -5  20   0    5.25    1.16
   5  20   1    2.91    1.40
  -5  20  -1    4.87    1.31
  -5  20  -1    3.66    1.05
   5  20   1    3.52    1.05
  -5  20  -2    1.70    0.85
   5  20   2    2.00    0.75
   5  20   3    3.50    0.74
  -5 -20   4   10.65    1.35
   5  20   4    8.62    0.88
  -5  21   3    2.22    0.59
  -5  21   1    3.85    1.10
  -5  21   1    5.54    0.98
   5  21   0    3.37    1.12
  -5  21   0    2.01    1.11
  -5  21   0    3.93    0.94
   5  21   0    3.43    0.80
  -5  21  -1    5.21    1.08
   5  21   1    5.13    0.89
  -5  21  -1    6.21    0.90
   5  21   2    1.50    0.76
  -5  22   1    1.46    0.62
  -5  22   0    1.73    0.63
  -5  22  -1    2.44    0.50
   5  22   1    2.29    0.54
   5  22   2    1.52    0.47
  -6   0   0 9999.00  470.97
  -6   0   1  430.38   19.25
   6   0   1  396.63   19.13
  -6   0   1  393.80   19.15
  -6   0   2  113.78    5.74
   6   0   2  106.73    5.69
  -6   0   2  115.05    5.76
   6   0   3  563.26   26.69
  -6   0   3  560.88   26.60
  -6   0   3  562.41   26.56
   6   0   3  552.04   26.57
  -6   0   3  535.06   26.58
   6   0   4   60.94    3.95
  -6   0   4   53.71    3.72
  -6   0   4   54.70    3.43
   6   0   4   55.59    3.68
  -6   0   4   50.28    3.66
  -6   0   5   21.09    1.87
  -6   0   5   25.15    2.72
   6   0   5   23.19    2.73
   6   0   5   18.43    2.96
   6   0   6    7.80    1.62
  -6   0   6    7.60    1.59
   6   0   6    7.66    2.55
  -6   0   6    7.93    2.43
  -6   0   6    7.87    1.56
  -6   0   6    7.41    1.45
   6   0   6    7.71    2.79
  -6   0   7   44.64    2.83
   6   0   7   40.14    2.87
  -6   0   7   37.94    2.87
   6   0   7   47.51    3.78
  -6   0   7   42.56    3.70
  -6   0   7   48.42    2.74
   6   0   7   46.61    4.19
  -6   0   8   40.73    2.47
   6   0   8   41.20    2.63
  -6   0   8   38.73    2.58
  -6   0   9   28.22    1.78
  -6   0   9   32.19    1.96
   6   0   9   33.25    1.96
  -6   1   9    8.08    1.01
   6  -1   9    9.37    1.22
  -6   1   8   24.75    1.89
  -6   1   8   23.42    1.98
   6  -1   8   24.53    2.13
  -6   1   7   15.16    2.53
   6  -1   7   18.32    2.99
  -6   1   7   14.98    1.86
   6  -1   7   16.35    2.02
  -6   1   7   15.93    1.82
  -6   1   7   17.86    1.70
   6  -1   7   18.55    3.39
   6  -1   6    4.55    1.64
  -6   1   6    4.78    1.54
  -6   1   6    3.14    1.45
   6  -1   6    2.94    2.82
   6  -1   6    2.48    2.51
  -6   1   6    0.82    2.25
  -6   1   6    1.90    1.34
  -6   1   5    4.29    1.28
  -6   1   5    4.73    1.39
   6  -1   5    6.76    2.35
  -6   1   5    5.65    2.22
  -6   1   5    4.76    1.28
   6  -1   5    3.82    2.63
  -6   1   4   21.76    2.46
   6  -1   4   24.19    2.64
   6  -1   4   17.86    2.83
   6  -1   3  233.84   11.38
  -6   1   3  231.67   11.31
  -6   1   3  220.18   11.23
   6  -1   2    5.31    1.70
  -6   1   2    6.70    1.63
  -6   1   2    5.91    1.45
  -6   1   1  296.83   14.77
  -6   1   1  330.11   14.87
   6   1   0    2.57    0.49
  -6   1   0    3.25    0.53
  -6  -1   1  299.53   13.57
   6   1   1  273.00   13.44
  -6  -1   2    3.22    1.71
   6   1   2    5.48    1.50
  -6  -1   2    4.55    1.73
  -6  -1   3  209.42   11.09
  -6  -1   3  224.64   11.05
   6   1   3  237.32   11.24
   6   1   3  226.27   11.07
  -6  -1   3  220.96   11.17
   6   1   4   16.46    2.64
  -6  -1   4   14.75    1.96
  -6  -1   4   14.19    2.53
   6   1   4   18.04    2.39
  -6  -1   5    8.97    2.35
   6   1   5    3.25    2.19
  -6  -1   5    5.97    1.45
   6   1   5    2.31    2.52
  -6  -1   5    4.91    1.68
  -6  -1   5    3.85    2.46
  -6  -1   6    4.32    1.56
   6   1   6    3.10    1.53
  -6  -1   6    2.35    2.46
   6   1   6    3.94    2.34
  -6  -1   6    2.48    1.45
  -6  -1   6    1.51    1.33
   6   1   6   -0.17    2.67
  -6  -1   7   17.16    1.90
   6   1   7   13.83    1.94
  -6  -1   7   16.27    2.00
   6   1   7   15.27    2.57
  -6  -1   7   18.08    2.92
  -6  -1   7   17.40    1.68
   6   1   7   18.52    3.14
  -6  -1   8   21.28    1.77
   6   1   8   24.36    2.00
  -6  -1   8   23.35    1.99
  -6  -1   9    9.61    1.29
  -6   2   9    1.30    0.88
   6  -2   9    1.63    1.12
  -6   2   8   10.24    1.44
  -6   2   8    8.69    1.47
   6  -2   8   11.14    1.71
  -6   2   7    8.16    1.43
  -6   2   7    8.29    1.60
  -6   2   7   10.06    2.24
   6  -2   7    7.86    2.75
   6  -2   7    7.67    1.80
  -6   2   7    6.58    1.59
  -6   2   6   13.75    1.58
  -6   2   6   12.26    1.76
   6  -2   6   11.83    1.82
  -6   2   6   11.32    1.63
  -6   2   6   11.38    2.37
   6  -2   6   16.33    2.84
  -6   2   5    1.84    2.02
   6  -2   5    7.29    2.40
  -6   2   5    4.31    1.26
  -6   2   5    3.71    1.28
  -6   2   4  215.60   11.35
   6  -2   4  238.40   11.52
   6  -2   3   16.33    2.37
  -6   2   3   15.81    2.02
  -6   2   2  631.49   30.03
  -6   2   1 2172.36  102.69
  -6   2   1 2180.40  102.65
  -6   2   0   65.70    3.23
   6   2   0   63.99    3.22
   6   2   1 2169.21  102.48
   6   2   1 2177.45  102.51
   6   2   1 2175.10  102.51
   6   2   2  669.20   31.71
  -6  -2   2  686.44   31.68
   6   2   2  646.06   31.63
   6   2   3   17.59    2.39
  -6  -2   3   13.41    2.25
  -6  -2   3   16.07    1.83
  -6  -2   3   14.77    2.26
   6   2   3   14.27    2.06
   6   2   4  226.77   11.66
  -6  -2   4  237.02   11.69
  -6  -2   4  230.44   11.48
   6   2   4  231.28   11.54
  -6  -2   4  224.21   11.68
   6   2   5    3.11    2.09
  -6  -2   5    9.44    2.33
  -6  -2   5    5.34    1.47
  -6  -2   5    4.94    1.67
   6   2   5    4.67    2.45
  -6  -2   5    3.39    2.47
   6   2   6   11.69    1.68
  -6  -2   6   15.56    1.81
  -6  -2   6   15.09    2.66
   6   2   6   11.25    2.38
  -6  -2   6   13.49    1.72
  -6  -2   6   13.53    1.61
   6   2   6   15.66    2.89
  -6  -2   7    7.97    1.68
   6   2   7    6.13    1.64
  -6  -2   7    8.63    1.75
   6   2   7    7.88    2.27
  -6  -2   7    8.71    2.72
  -6  -2   7    7.90    1.41
   6   2   7   12.84    2.81
  -6  -2   8   11.74    1.40
  -6  -2   8   11.79    1.72
   6   2   8   10.62    1.58
  -6  -2   9    0.82    1.12
  -6   3   9    0.65    0.85
   6  -3   9    0.18    1.13
  -6   3   8    8.42    1.36
   6  -3   8    7.59    1.70
  -6   3   8    5.69    1.34
  -6   3   7    7.95    1.42
  -6   3   7    7.07    1.48
   6  -3   7    8.86    1.90
  -6   3   7    7.32    1.56
   6  -3   7    7.30    2.80
  -6   3   7    6.22    2.13
   6  -3   6    4.77    2.60
  -6   3   6    2.51    1.98
  -6   3   6    2.82    1.32
  -6   3   6    2.34    1.42
   6  -3   6    4.18    1.82
  -6   3   6    1.15    1.53
  -6   3   6    5.33    1.42
  -6   3   5    7.11    2.01
   6  -3   5   10.66    2.64
  -6   3   5    7.64    1.49
  -6   3   5    8.78    1.35
  -6   3   5    6.73    1.38
   6  -3   5    9.93    1.73
  -6   3   4   94.27    5.36
   6  -3   4   98.54    5.68
   6  -3   3    3.89    0.65
   6  -3   3    8.07    2.16
  -6   3   3    8.49    1.74
  -6   3   2   64.72    3.53
  -6   3   2   61.31    3.71
  -6   3   1  149.52    7.39
  -6   3   1  154.87    7.49
   6   3   0  387.96   19.23
  -6   3   0  423.47   19.24
   6   3   1  151.74    6.88
   6   3   1  128.79    6.88
  -6  -3   1  130.45    6.83
  -6   3  -1  156.41    6.91
   6   3   1  144.01    6.94
   6   3   2   64.24    3.55
  -6  -3   2   54.28    3.56
   6   3   2   60.00    3.55
   6   3   2   64.70    3.41
   6   3   3    9.74    2.03
  -6  -3   3    8.07    1.59
  -6  -3   3    7.98    2.09
   6   3   3    9.52    1.72
  -6  -3   3    6.32    2.12
  -6  -3   4   73.76    4.89
   6   3   4   80.20    4.85
  -6  -3   4   77.75    4.54
   6   3   4   78.44    4.60
  -6  -3   4   88.38    4.95
   6   3   5    7.78    1.42
  -6  -3   5    7.18    1.65
  -6  -3   5    9.97    1.54
   6   3   5    8.12    2.54
  -6  -3   5    8.32    2.59
  -6  -3   5    7.01    1.72
   6   3   5    8.58    1.99
  -6  -3   5   10.03    2.59
   6   3   6    0.36    1.46
  -6  -3   6    4.08    1.69
  -6  -3   6    3.33    1.36
  -6  -3   6    5.07    1.48
  -6  -3   6    1.84    1.72
   6   3   6    6.20    2.57
  -6  -3   6    4.21    2.68
   6   3   6    4.43    2.03
  -6  -3   6    4.10    2.56
  -6  -3   7    6.31    1.37
  -6  -3   7    9.18    2.82
   6   3   7    5.68    2.16
  -6  -3   7   10.86    1.83
   6   3   7    7.98    1.61
  -6  -3   8    6.94    1.27
  -6  -3   8    9.28    1.66
   6   3   8    6.60    1.42
  -6  -3   9    0.29    1.14
  -6   4   9    2.95    0.86
   6  -4   9    0.28    1.09
  -6   4   8    3.37    1.27
   6  -4   8    1.79    1.59
  -6   4   7    9.12    2.08
   6  -4   7   10.53    2.92
  -6   4   7   11.63    1.51
  -6   4   7    7.52    1.51
   6  -4   7   11.95    1.91
  -6   4   7    9.93    1.59
   6  -4   7   12.34    3.53
   6  -4   6   73.79    5.00
  -6   4   6   72.54    4.44
  -6   4   6   64.61    3.75
   6  -4   6   71.31    4.04
  -6   4   6   66.71    3.77
  -6   4   6   66.83    3.80
   6  -4   6   72.91    5.33
  -6   4   5   37.06    2.86
   6  -4   5   41.43    3.63
  -6   4   5   34.03    2.33
  -6   4   5   39.43    2.38
   6  -4   5   39.83    3.93
  -6   4   5   32.65    2.25
   6  -4   5   33.11    2.61
  -6   4   4   46.75    3.21
   6  -4   4   54.04    3.83
  -6   4   3   49.71    3.08
  -6   4   2  139.96    7.02
  -6   4   2  135.30    6.84
   6   4  -1  177.43    8.26
  -6   4   1  161.61    8.31
  -6   4   1  167.50    8.20
  -6   4   0   14.93    1.30
   6   4   0   12.70    1.30
   6   4   1  184.66    8.65
  -6   4  -1  172.19    8.60
  -6  -4   1  173.24    8.52
   6   4   1  181.50    8.58
   6   4   2  140.90    7.19
  -6  -4   2  147.42    7.31
   6   4   2  145.88    7.30
   6   4   2  145.80    7.21
   6   4   3   47.58    3.00
  -6  -4   3   51.37    3.39
   6   4   3   49.47    3.23
  -6  -4   3   43.21    3.02
   6   4   4   49.21    3.24
  -6  -4   4   51.30    3.76
  -6  -4   4   45.60    3.17
   6   4   4   49.17    3.51
  -6  -4   4   52.01    3.71
  -6  -4   5   39.96    2.47
   6   4   5   41.19    2.98
  -6  -4   5   40.73    3.53
  -6  -4   5   41.57    3.59
  -6  -4   5   37.17    2.91
   6   4   5   37.61    3.25
   6   4   5   32.63    2.32
  -6  -4   5   35.63    2.61
   6   4   6   66.69    3.82
  -6  -4   6   65.85    4.07
  -6  -4   6   79.27    5.09
   6   4   6   71.24    4.50
  -6  -4   6   71.93    3.88
  -6  -4   6   70.71    3.84
  -6  -4   6   83.11    5.13
  -6  -4   6   62.43    4.33
   6   4   7   11.41    2.22
  -6  -4   7   11.75    2.77
   6   4   7   11.21    1.58
  -6  -4   7    9.47    1.91
  -6  -4   7   11.00    1.36
  -6  -4   8    4.31    1.63
  -6  -4   9    0.93    1.14
   6  -5   9    5.42    1.12
  -6   5   9    4.70    0.89
  -6   5   8   25.62    1.92
   6  -5   8   27.84    2.21
   6  -5   7    6.58    1.85
   6  -5   7    5.94    2.84
  -6   5   7    6.35    1.94
   6  -5   7    4.97    3.37
  -6   5   7    2.30    1.42
  -6   5   6  103.81    5.56
  -6   5   6  111.51    5.68
   6  -5   6  109.23    5.97
  -6   5   6  118.16    5.74
   6  -5   6  119.87    7.32
  -6   5   6  106.99    6.27
   6  -5   6  122.99    7.02
  -6   5   5   18.74    1.41
  -6   5   5   15.38    1.56
   6  -5   5   15.15    2.07
  -6   5   5   16.55    1.64
  -6   5   5   18.54    1.70
   6  -5   5   13.02    3.35
  -6   5   5   19.44    2.20
   6  -5   5   15.28    2.96
   6  -5   4   21.24    2.90
  -6   5   4   23.31    2.18
  -6   5   3    9.91    2.11
  -6   5   3   10.28    1.59
  -6   5   2   16.77    2.08
  -6   5   2   15.80    1.63
   6   5  -1   89.46    4.78
  -6   5   1   89.25    4.71
  -6   5   1  100.92    4.90
   6   5   0    6.79    1.21
  -6   5   0    6.36    1.24
   6   5   1   78.99    4.08
   6   5   1   86.65    4.22
  -6   5  -1   92.69    4.16
   6   5   2   13.15    1.57
   6   5   2   16.40    1.84
  -6  -5   2   12.02    1.92
   6   5   3    9.11    1.59
   6   5   3    9.27    1.95
  -6  -5   3    6.54    2.28
   6   5   4   22.08    2.10
  -6  -5   4   19.42    2.76
  -6  -5   4   16.84    2.04
  -6  -5   4   18.79    2.73
   6   5   5   13.75    1.52
  -6  -5   5   12.97    1.91
   6   5   5   16.53    1.37
  -6  -5   5   13.94    1.63
  -6  -5   5   22.56    3.02
   6   5   5   16.77    2.13
  -6  -5   5   15.09    2.12
  -6  -5   5   17.94    3.00
  -6  -5   6  102.96    6.41
   6   5   6  100.35    5.80
   6   5   6  104.23    5.20
  -6  -5   6  108.22    5.48
   6   5   6  105.16    5.11
  -6  -5   6  105.63    5.24
  -6  -5   6  101.66    6.35
  -6  -5   6   88.29    5.16
   6   5   7    3.91    1.22
   6   5   7    2.53    1.87
  -6  -5   7    5.60    2.72
  -6  -5   7    7.47    1.92
  -6  -5   7    2.74    1.12
  -6  -5   8   25.71    2.21
  -6  -5   9    6.10    1.19
   6  -6   9    2.36    1.05
  -6   6   9    3.54    0.81
  -6   6   8   19.05    1.62
   6  -6   8   20.44    1.93
   6  -6   7    3.05    2.79
  -6   6   7   -0.07    1.72
   6  -6   7    2.69    3.29
  -6   6   7    1.50    1.35
   6  -6   7    3.87    1.85
  -6   6   6    2.88    1.45
  -6   6   6    2.67    1.04
   6  -6   6    2.35    2.02
   6  -6   6    4.05    3.62
   6  -6   6    5.52    3.05
  -6   6   6    2.08    1.84
  -6   6   5   17.85    2.16
   6  -6   5   22.24    3.17
  -6   6   5   17.30    1.48
  -6   6   5   16.55    1.57
   6  -6   5   15.42    2.16
  -6   6   5   19.00    1.63
   6  -6   5   18.11    3.55
  -6   6   5   19.99    1.63
  -6   6   5   20.18    1.70
  -6   6   4    3.57    1.59
  -6   6   3   42.66    2.74
  -6   6   3   40.79    2.67
  -6   6   3   46.83    3.30
  -6   6   2   16.86    1.55
   6   6  -2   16.39    1.83
  -6   6   2   18.47    2.17
  -6   6   2   17.91    1.63
   6   6  -1   95.93    4.76
  -6   6   1   88.68    4.86
  -6   6   1   88.38    4.65
   6   6   0  275.97   13.42
  -6   6   0  281.23   13.45
   6   6   1  100.21    5.06
  -6   6  -1   94.26    4.99
   6   6   2   18.72    2.03
   6   6   2   16.90    1.66
  -6  -6   2   17.08    2.03
  -6   6  -2   17.09    1.75
  -6  -6   3   45.74    3.30
   6   6   3   45.97    2.89
   6   6   3   48.15    3.26
   6   6   3   44.64    2.69
   6   6   4    4.17    1.60
  -6  -6   4    2.51    2.26
  -6  -6   4    3.93    1.61
  -6  -6   5   19.03    2.19
  -6  -6   5   20.60    3.04
  -6  -6   5   19.85    1.70
  -6  -6   5   15.01    2.08
   6   6   5   19.10    1.52
  -6  -6   5   18.99    3.03
   6   6   5   17.10    2.18
   6   6   5   17.78    1.68
  -6  -6   6    2.44    1.91
  -6  -6   6    2.39    2.77
  -6  -6   6    2.40    1.84
   6   6   6    1.07    1.20
   6   6   6    1.16    1.81
  -6  -6   6    8.48    3.02
  -6  -6   6    0.84    1.31
  -6  -6   7    4.84    1.90
   6   6   7    1.43    1.73
  -6  -6   7    1.94    2.65
   6   6   7    2.27    1.18
  -6  -6   8   17.63    1.91
  -6  -6   9    3.59    1.12
  -6   7   9    0.47    0.73
   6  -7   9    0.36    0.95
  -6   7   8    3.68    1.15
   6  -7   8    3.99    1.55
  -6   7   7    8.39    1.50
   6  -7   7   13.45    2.06
  -6   7   6   11.35    1.33
   6  -7   6   15.31    3.79
   6  -7   6   10.29    3.13
  -6   7   6    5.07    1.87
  -6   7   6   10.66    1.58
   6  -7   6   10.65    2.26
   6  -7   5    4.75    3.33
  -6   7   5    4.53    1.12
  -6   7   5    4.20    1.23
  -6   7   5    2.97    1.70
   6  -7   5    5.38    2.93
  -6   7   4    6.02    1.58
  -6   7   4    9.06    1.27
  -6   7   3   14.69    1.69
  -6   7   3   15.27    2.40
   6   7  -3   15.32    1.94
  -6   7   3   14.56    1.70
  -6   7   2   78.91    4.40
  -6   7   2   89.57    4.81
   6   7  -2   74.29    4.50
  -6   7   2   86.89    4.29
  -6   7   1  124.71    6.25
   6   7  -1  115.93    6.12
   6   7   0    7.15    1.44
  -6   7   0    6.17    1.44
   6   7   1  121.52    6.54
  -6   7  -1  134.37    6.50
  -6  -7   2   58.17    4.13
   6   7   2   70.10    4.05
   6   7   2   80.77    4.37
   6   7   2   75.92    3.89
  -6   7  -2   91.35    4.22
  -6  -7   3   12.34    2.33
   6   7   3   14.47    2.25
   6   7   3   14.73    1.65
  -6   7  -3   16.92    1.87
   6   7   3   14.27    1.71
  -6  -7   4    7.07    2.42
  -6  -7   4    6.58    1.76
   6   7   4    5.05    1.61
   6   7   5    4.56    1.16
   6   7   5    2.23    1.67
  -6  -7   5    3.63    2.80
  -6  -7   5    1.94    1.91
  -6  -7   5    3.38    1.87
  -6  -7   5    5.92    2.53
   6   7   5    4.71    1.40
  -6  -7   6   11.25    2.25
  -6  -7   6    3.63    1.98
  -6  -7   6   11.60    1.39
  -6  -7   6   10.54    3.21
   6   7   6    8.13    1.98
   6   7   6    8.40    1.35
   6   7   7    9.07    1.33
  -6  -7   7   11.85    2.02
  -6  -7   8    6.59    1.67
  -6   7  -9    0.84    0.69
  -6  -7   9    0.18    1.05
  -6   8   9    2.08    0.66
   6  -8   9    1.45    0.84
  -6   8   8    4.56    1.10
   6  -8   8    4.92    1.51
  -6   8   7    1.54    1.31
   6  -8   7    5.29    1.94
  -6   8   6    5.02    1.19
   6  -8   6    6.88    2.14
   6  -8   6    4.79    3.52
  -6   8   6    4.30    1.41
   6   8  -6    2.77    2.21
   6  -8   6    7.33    3.15
  -6   8   6    2.99    1.71
   6   8  -5   53.14    3.80
   6  -8   5   60.56    4.64
  -6   8   5   52.94    3.48
  -6   8   5   51.55    3.05
  -6   8   4   12.94    1.44
  -6   8   4   14.07    1.35
   6   8  -4   13.15    2.06
  -6   8   4   15.49    1.81
  -6   8   4   14.06    1.44
  -6   8   3   21.51    2.00
  -6   8   3   23.47    2.05
   6   8  -3   23.62    2.33
  -6   8   3   26.46    2.78
  -6   8   2   29.57    2.19
  -6   8   2   29.99    2.74
  -6   8   2   32.70    2.13
   6   8  -2   31.49    2.42
  -6   8   1  198.32    9.92
   6   8  -1  197.10    9.80
   6   8   0   20.68    1.85
   6   8   0   18.39    1.40
  -6   8   0   20.39    1.40
  -6   8   0   18.75    1.89
   6   8   1  193.11    9.18
  -6   8  -1  189.03    9.10
  -6   8  -1  177.24    8.81
   6   8   2   32.05    2.06
  -6   8  -2   31.24    2.28
   6   8   2   25.24    2.09
   6   8   2   36.31    2.67
  -6  -8   2   27.76    2.41
  -6   8  -3   25.10    2.20
   6   8   3   22.28    1.98
  -6  -8   3   24.56    2.50
   6   8   3   27.39    2.70
   6   8   3   22.54    2.05
   6   8   4   13.49    1.90
   6   8   4   14.05    1.61
   6   8   4   13.14    1.34
  -6   8  -4   12.61    2.07
  -6  -8   4   14.21    2.60
   6   8   5   53.62    3.14
  -6  -8   5   45.67    3.66
   6   8   5   49.70    2.93
  -6   8  -5   59.11    3.79
  -6  -8   5   51.18    4.56
   6   8   5   55.83    3.51
  -6  -8   6    4.84    2.16
  -6  -8   6    5.95    2.12
  -6  -8   6    6.34    3.06
   6   8   6    3.43    1.76
  -6   8  -6    3.58    2.15
   6   8   6    4.05    1.27
   6   8   7    1.11    1.16
  -6  -8   7    4.74    1.96
  -6  -8   8    6.41    1.56
  -6   8  -9    0.94    0.63
  -6  -8   9    1.03    0.94
   6  -9   9    1.59    0.69
  -6   9   8    1.99    0.98
   6  -9   8    3.67    1.38
  -6   9   7    5.67    1.30
   6  -9   7    9.13    2.00
  -6   9   6    6.11    1.45
   6  -9   6    5.37    2.23
   6   9  -6    7.93    2.24
   6  -9   6   10.03    3.26
  -6   9   6    5.80    1.76
   6  -9   6   10.94    3.75
  -6   9   6    7.48    1.29
   6   9  -5   19.49    2.54
  -6   9   5   19.19    1.73
  -6   9   5   17.01    2.13
   6  -9   5   15.63    3.50
  -6   9   4   19.10    1.70
  -6   9   4   16.28    2.00
   6   9  -4   16.43    2.33
  -6   9   4   23.77    3.06
  -6   9   4   21.92    1.66
  -6   9   3   11.82    1.72
  -6   9   3   16.40    1.87
   6   9  -3   10.70    1.91
  -6   9   3   17.89    2.61
  -6   9   2   43.67    2.94
   6   9  -2   45.98    3.12
  -6   9   2   47.81    2.87
  -6   9   1   58.29    3.59
   6   9  -1   55.11    2.97
   6   9  -1   53.68    3.37
  -6   9   0    4.97    1.53
   6   9   0    3.49    1.47
   6   9   0    3.95    1.02
  -6   9   0    5.11    1.04
   6   9   1   52.72    3.47
  -6   9  -1   56.33    2.98
  -6   9  -1   58.32    3.37
   6   9   2   43.01    3.26
   6   9   2   46.40    2.77
  -6   9  -2   50.79    3.03
   6   9   3   14.70    2.29
  -6   9  -3   12.74    1.86
   6   9   3   10.85    1.65
   6   9   3   11.74    1.63
   6   9   3    9.24    1.22
   6   9   4   14.37    2.00
  -6   9  -4   21.81    2.26
   6   9   4   18.18    1.56
   6   9   4   19.40    2.67
   6   9   4   17.53    1.83
  -6  -9   5   16.69    2.45
   6   9   5   20.31    1.68
  -6   9  -5   23.08    2.55
  -6  -9   5   15.76    3.42
   6   9   5   16.25    2.17
   6   9   5   21.33    1.95
  -6  -9   6    5.77    2.23
   6   9   6    6.46    1.34
  -6   9  -6    7.00    2.10
  -6  -9   6    7.44    3.27
   6   9   6    7.09    1.78
  -6  -9   6    3.36    2.04
  -6  -9   7    6.64    2.01
   6   9   8    0.46    1.00
  -6  -9   8    1.52    1.42
  -6   9  -9    0.89    0.58
  -6  10   8    4.92    0.95
   6 -10   8    7.40    1.33
  -6  10   7    3.19    1.20
   6 -10   7    6.56    1.85
   6 -10   6    1.20    2.07
   6 -10   6    3.46    2.99
  -6  10   6    5.73    1.66
  -6  10   6    3.43    1.23
   6 -10   6    3.83    3.60
   6  10  -6    5.71    2.09
  -6  10   5   34.71    2.88
   6  10  -5   39.70    3.25
  -6  10   5   40.71    2.59
   6 -10   5   41.15    4.21
  -6  10   4    6.91    1.65
  -6  10   4    7.53    1.32
  -6  10   4    8.47    1.40
   6  10  -4    8.06    1.97
  -6  10   4    8.74    2.73
  -6  10   3   10.81    1.85
  -6  10   3    9.65    1.34
  -6  10   3    8.67    2.46
   6  10  -3    6.94    1.82
  -6  10   3    8.58    1.59
  -6  10   3    9.77    1.20
  -6  10   3    9.91    1.71
  -6  10   2   52.60    3.79
  -6  10   2   54.02    3.19
   6  10  -2   52.67    3.42
   6  10  -1   14.96    1.33
   6  10  -1   13.67    1.86
  -6  10   1   11.76    2.06
  -6  10   0    1.13    1.56
   6  10   0    5.36    1.66
   6  10   0    1.77    1.05
  -6  10   0    2.37    1.03
  -6  10  -1   14.01    1.28
   6  10   1   17.00    2.06
  -6  10  -1   12.54    1.77
   6  10   2   55.68    3.69
   6  10   2   54.79    3.08
  -6  10  -2   48.48    3.29
   6  10   3    8.99    1.72
   6  10   3    9.11    1.47
   6  10   3    7.01    1.61
  -6  10  -3    8.61    1.80
   6  10   3   11.65    2.35
  -6  10  -3    6.78    1.07
   6  10   4    9.26    1.67
   6  10   4    4.83    1.51
  -6  10  -4    7.33    1.92
   6  10   4    4.05    2.45
   6  10   4    9.22    1.34
   6  10   5   38.38    2.61
  -6 -10   5   32.77    3.19
   6  10   5   37.23    2.90
  -6  10  -5   38.92    3.19
  -6 -10   5   38.87    4.28
   6  10   5   38.82    2.41
  -6  10  -6    4.15    2.05
  -6 -10   6    2.18    3.14
   6  10   6    2.96    1.63
   6  10   6    2.10    1.30
  -6 -10   6    0.82    2.11
  -6 -10   7    6.91    1.96
  -6 -10   8    6.43    1.42
  -6  10  -8    3.84    1.03
   6 -11   8    6.45    1.21
  -6  11   8    5.08    0.87
   6 -11   7    6.05    1.78
  -6  11   7    2.88    1.10
   6 -11   6    9.01    2.20
  -6  11   6   12.53    1.45
  -6  11   5   82.08    4.17
   6  11  -5   67.74    4.68
   6 -11   5   79.07    5.65
  -6  11   5   76.98    3.99
  -6  11   5   60.98    4.31
   6 -11   5   85.05    6.10
  -6  11   4   10.18    1.75
  -6  11   4   10.77    1.34
  -6  11   4    8.30    1.24
   6  11  -4    6.93    2.03
  -6  11   4    9.06    3.06
  -6  11   3   20.22    2.14
  -6  11   3   19.75    1.73
  -6  11   3   22.61    2.86
   6  11  -3   19.00    2.27
  -6  11   3   19.27    2.02
  -6  11   3   19.33    1.50
  -6  11   3   13.77    1.53
   6  11  -2    4.49    1.20
  -6  11   2    3.78    1.52
   6  11  -2    3.34    1.74
  -6  11   2    4.77    2.27
  -6  11   2    7.76    1.57
  -6  11   2    5.70    1.24
  -6  11   1   10.23    2.01
   6  11  -1    7.64    1.77
  -6  11   1    9.22    1.50
   6  11  -1    7.65    1.22
  -6  11   0   11.65    1.85
   6  11   0   10.16    1.91
  -6  11   0   11.71    1.29
   6  11   0    9.69    1.27
   6  11   1    7.87    1.92
  -6  11  -1    7.46    1.70
  -6  11  -1    8.87    1.17
   6  11   1    8.05    1.31
  -6  11  -2    3.20    1.11
   6  11   2    4.55    1.49
  -6  11  -2    4.89    1.62
   6  11   2    6.25    2.15
  -6  11  -2    4.34    1.13
   6  11   2    5.54    1.41
   6  11   2    6.21    1.24
  -6  11  -3   16.30    2.07
   6  11   3   16.17    1.89
  -6  11  -3   18.89    1.57
  -6  11  -3   16.76    1.48
   6  11   3   18.93    1.83
   6  11   3   15.64    2.60
   6  11   4    6.06    1.70
   6  11   4    9.22    1.66
  -6  11  -4    9.09    2.07
   6  11   4    8.19    2.62
   6  11   5   62.96    4.16
  -6 -11   5   77.57    5.68
  -6  11  -5   74.97    4.53
   6  11   5   77.71    4.01
   6  11   6   12.92    1.57
  -6 -11   6   12.62    2.38
   6  11   7    2.55    1.15
  -6 -11   7    4.66    1.88
  -6  11  -8    2.61    0.94
  -6 -11   8    7.36    1.29
   6 -12   8    7.34    1.08
   6 -12   7    6.06    1.65
  -6  12   6   43.97    2.62
   6 -12   6   41.09    3.15
   6 -12   5    8.13    3.68
   6 -12   5    4.10    3.02
   6  12  -5    4.17    1.99
  -6  12   5    7.36    1.30
  -6  12   5    7.92    1.43
   6  12  -4    0.07    1.92
  -6  12   4   -0.29    2.77
  -6  12   4    2.11    1.19
  -6  12   4    1.51    1.14
  -6  12   3   12.72    2.09
  -6  12   3   16.23    2.95
   6  12  -3   10.07    2.09
  -6  12   3   13.05    1.31
  -6  12   3   12.66    2.09
  -6  12   3   12.03    1.54
  -6  12   2   13.83    1.81
  -6  12   2   13.28    1.25
  -6  12   2   15.56    2.46
   6  12  -2   10.26    2.00
   6  12  -2   12.42    1.44
   6  12  -2   12.97    1.19
  -6  12   2   13.05    1.82
  -6  12   2   14.99    1.54
  -6  12   1   22.67    2.48
  -6  12   1   20.91    1.71
   6  12  -1   23.61    1.77
   6  12  -1   19.37    2.26
  -6  12   1   22.52    1.89
   6  12   0    6.24    1.91
  -6  12   0    6.22    1.84
  -6  12   0    6.75    1.36
   6  12   0    6.72    1.35
   6  12   1   21.86    1.75
  -6  12  -1   19.87    2.20
  -6  12  -1   20.02    1.63
   6  12   1   26.16    2.59
  -6  12  -1   18.98    1.75
   6  12   1   21.18    1.85
   6  12   2   13.69    1.54
   6  12   2   16.53    1.90
   6  12   2   13.58    2.50
  -6  12  -2   13.64    1.90
  -6  12  -2   13.41    1.50
   6  12   2   16.66    1.71
  -6  12  -2   12.61    1.37
   6  12   3   13.69    2.70
  -6  12  -3   11.32    2.01
  -6  12  -3   11.84    1.44
   6  12   3   13.70    1.96
  -6  12  -3   12.20    1.35
   6  12   3   13.99    1.74
  -6  12  -4    2.18    1.88
   6  12   4    1.63    2.56
  -6  12  -4    2.47    1.33
   6  12   5    6.71    1.42
  -6 -12   5    7.77    3.26
  -6  12  -5    6.36    2.04
  -6 -12   5    2.58    2.07
   6  12   6   42.18    2.60
  -6  12  -6   45.40    2.74
   6  12   6   41.38    2.67
  -6 -12   6   44.76    3.29
   6  12   7    3.57    1.12
  -6 -12   7    4.63    1.77
  -6  12  -7    4.92    1.18
  -6 -12   8    7.50    1.10
  -6  12  -8    5.07    0.90
   6 -13   8    1.69    0.71
   6  13  -7    1.91    1.04
   6 -13   7    6.37    1.46
  -6  13   6   19.38    1.50
  -6  13   6   16.94    1.56
   6 -13   6   16.61    2.27
  -6  13   5   10.81    1.34
  -6  13   5    9.10    1.48
  -6  13   4   22.97    1.93
  -6  13   4   23.12    3.25
  -6  13   4   22.55    1.72
   6  13  -4   22.85    1.91
   6  13  -4   22.25    2.54
  -6  13   3    3.70    1.32
  -6  13   3    5.51    1.13
  -6  13   3    3.27    1.83
   6  13  -3    4.33    1.37
   6  13  -3    4.02    1.07
  -6  13   3    5.43    1.93
  -6  13   3    3.86    2.67
   6  13  -3    3.77    1.96
  -6  13   2  311.00   15.31
  -6  13   2  321.76   14.70
   6  13  -2  264.24   14.37
   6  13  -2  295.03   14.97
  -6  13   2  317.29   14.65
   6  13  -2  317.18   14.49
  -6  13   2  313.34   14.58
  -6  13   2  297.16   14.35
  -6  13   1   18.66    1.83
   6  13  -1   14.17    2.14
  -6  13   1   20.15    2.44
  -6  13   1   14.08    1.50
   6  13  -1   14.80    1.61
  -6  13   0   15.97    1.66
   6  13   0   13.38    1.55
  -6  13   0   13.83    2.19
   6  13   0   12.35    2.21
   6  13   1   14.77    1.71
   6  13   1   15.61    1.71
  -6  13  -1   16.50    1.56
  -6  13  -1   16.27    2.09
   6  13   1   14.15    2.36
  -6  13  -1   16.68    1.69
  -6  13  -1   17.60    1.56
   6  13   2  312.43   14.73
   6  13   2  293.17   15.47
  -6  13  -2  307.55   14.86
  -6  13  -2  300.69   14.75
  -6  13  -2  292.12   15.19
   6  13   2  318.44   14.90
   6  13   2  302.20   14.88
   6  13   3    5.92    2.54
  -6  13  -3    1.67    1.90
   6  13   3    2.97    1.49
  -6  13  -3    5.10    1.31
   6  13   3    2.72    1.78
  -6  13  -3    5.90    1.22
  -6  13  -4   23.94    1.91
  -6  13  -4   23.78    2.54
   6  13   4   23.22    3.24
   6  13   5   12.68    1.55
  -6  13  -5   11.96    1.62
  -6  13  -6   16.97    1.55
   6  13   6   14.93    1.53
  -6  13  -6   17.99    1.69
   6  13   6   16.69    1.56
  -6 -13   6   14.62    2.33
  -6  13  -7    4.06    1.10
   6  13   7    4.51    1.02
  -6  13  -7    3.21    1.00
  -6  13  -8    0.40    0.63
   6 -14   7   11.34    1.43
  -6  14   6   10.50    1.18
   6  14  -6    8.87    1.29
  -6  14   6   11.28    1.23
   6 -14   6    7.67    1.92
   6  14  -5    2.23    1.03
   6  14  -5    0.78    1.24
  -6  14   5    3.02    1.08
   6  14  -4   27.48    1.92
  -6  14   4   29.43    2.16
  -6  14   4   23.97    3.40
  -6  14   4   29.55    1.92
  -6  14   4   27.32    2.07
   6  14  -4   31.25    2.15
   6  14  -4   25.85    2.76
  -6  14   3    5.98    1.41
  -6  14   3    7.79    2.70
   6  14  -3    7.07    2.01
   6  14  -3    6.57    1.40
  -6  14   3    5.27    1.91
  -6  14   3    6.36    1.17
  -6  14   3    5.74    1.91
   6  14  -3    4.81    1.11
  -6  14   2   24.45    2.44
  -6  14   2   30.89    3.27
   6  14  -2   29.10    2.13
  -6  14   2   27.01    2.47
   6  14  -2   28.86    2.74
  -6  14   2   28.06    2.08
   6  14  -1   12.56    2.22
  -6  14   1   12.32    2.52
   6  14  -1   10.26    1.56
  -6  14   1   12.81    1.74
  -6  14   1    9.82    1.39
  -6  14   0   20.10    1.99
   6  14   0   20.24    1.76
  -6  14   0   19.60    1.84
   6  14   0   18.81    2.53
  -6  14   0   18.24    2.56
  -6  14  -1   10.08    2.21
   6  14   1   10.10    2.42
   6  14   1   11.12    1.61
  -6  14  -1   10.94    1.55
  -6  14  -1   11.62    1.63
  -6  14  -1    8.96    1.54
  -6  14  -2   28.36    2.11
   6  14   2   28.03    2.28
   6  14   2   32.74    2.21
  -6  14  -2   27.93    2.12
  -6  14  -2   24.64    2.65
  -6  14  -2   24.77    2.08
   6  14   2   31.72    2.46
   6  14   2   30.47    3.23
  -6  14  -3    6.70    1.36
   6  14   3    6.30    1.92
   6  14   3    7.75    2.64
  -6  14  -3    5.92    1.93
  -6  14  -3    5.81    1.24
   6  14   3    6.87    1.66
   6  14   4   28.54    3.36
  -6  14  -4   28.07    2.06
  -6  14  -4   26.40    2.65
   6  14   5    1.98    1.27
  -6  14  -5    1.48    1.31
  -6  14  -5    1.33    1.21
   6  14   5    2.97    1.33
   6  14   6    6.74    1.17
  -6 -14   6    7.02    1.98
  -6  14  -6    7.67    1.32
  -6  14  -6    6.53    1.20
   6  14   6    9.71    1.27
  -6  14  -7    6.84    1.07
  -6 -14   7    9.99    1.45
   6 -15   7    5.98    1.01
   6  15  -6    1.16    1.02
   6 -15   6   -0.60    1.61
   6  15  -5    4.70    1.27
  -6  15   4   10.39    1.36
   6  15  -4   10.46    1.48
  -6  15   4   11.32    1.46
  -6  15   3    1.62    1.28
   6  15  -3    2.75    1.34
  -6  15   3    2.53    1.82
  -6  15   3    4.66    2.59
   6  15  -3    4.98    1.90
  -6  15   3    2.32    1.32
   6  15  -3    3.52    1.01
  -6  15   3    2.95    1.80
   6  15  -2    7.07    2.08
  -6  15   2    4.27    2.48
   6  15  -2    6.68    1.43
  -6  15   2    7.96    1.82
  -6  15   2    4.16    1.82
  -6  15   2    4.08    1.28
  -6  15   1   22.82    2.24
  -6  15   1   22.99    1.82
   6  15  -1   29.74    2.87
  -6  15   1   21.66    2.85
   6  15   0   14.63    2.55
  -6  15   0   12.70    2.40
  -6  15   0   13.92    1.75
  -6  15   0   16.58    1.80
   6  15   0   14.07    1.59
   6  15   1   26.53    3.05
  -6  15  -1   20.19    2.63
  -6  15  -1   21.50    2.11
  -6  15  -1   27.66    2.15
  -6  15  -2    4.50    1.39
   6  15   2    7.28    1.82
   6  15   2    8.14    1.59
  -6  15  -2    3.77    1.91
   6  15   2    6.26    2.57
  -6  15  -2    5.57    1.36
   6  15   2    7.72    1.63
  -6  15  -2    6.61    1.45
  -6  15  -3    2.93    1.21
   6  15   3    5.21    2.52
  -6  15  -3    3.67    1.91
  -6  15  -3    3.44    1.31
   6  15   3    5.29    1.92
  -6  15  -4   11.03    1.44
   6  15   4    8.97    1.50
  -6  15  -5    1.08    1.14
   6  15   5    4.37    1.32
   6  15   6    2.29    0.94
  -6 -15   6   -0.63    1.70
  -6  15  -6    0.22    1.09
  -6  15  -6    3.06    0.99
   6  15   6    1.33    1.08
  -6  15  -7    4.10    0.84
  -6 -15   7    5.20    1.12
   6  16  -6    2.35    0.91
   6 -16   6    2.30    1.37
  -6  16   5    1.79    0.99
   6  16  -5    1.20    1.08
  -6  16   4    2.48    1.12
  -6  16   4    2.77    1.14
   6  16  -4    2.27    1.27
  -6  16   3   14.26    1.62
   6  16  -3   18.28    1.72
  -6  16   3   17.15    2.01
  -6  16   3   14.09    2.01
  -6  16   3   15.03    1.57
  -6  16   2    4.52    1.25
   6  16  -2    4.17    2.11
  -6  16   2    2.35    2.38
  -6  16   2    3.46    1.37
  -6  16   2    7.21    1.84
   6  16  -2    6.16    1.46
  -6  16   2    3.86    1.75
   6  16  -1    3.05    2.12
  -6  16   1    4.01    2.29
  -6  16   1    0.57    1.41
  -6  16   1    1.46    1.68
  -6  16   1    3.00    1.12
  -6  16   1    3.08    1.67
   6  16   0   11.50    2.53
  -6  16   0   14.07    2.48
  -6  16   0   13.66    1.73
  -6  16   0   12.98    1.78
  -6  16  -1    2.94    2.03
   6  16   1    2.68    2.38
  -6  16  -1    0.12    1.33
   6  16   1    4.86    1.69
  -6  16  -1    1.83    1.53
  -6  16  -2    5.35    2.05
   6  16   2    4.12    2.44
  -6  16  -2    6.03    1.36
   6  16   2    6.63    1.85
  -6  16  -2    4.59    1.56
  -6  16  -2    2.46    1.31
  -6  16  -3   14.83    1.71
  -6  16  -3   14.30    1.45
  -6  16  -3   14.26    1.58
   6  16   3   14.47    2.09
   6  16   4    2.63    1.26
  -6  16  -4    3.40    1.24
  -6  16  -5    0.04    1.08
   6  16   5    1.54    1.17
   6  16   6    1.88    0.78
  -6 -16   6    2.71    1.48
   6 -17   6    3.33    1.06
   6  17  -5    2.42    1.00
   6 -17   5   -1.97    1.60
   6  17  -4    2.24    1.18
  -6  17   4    1.97    1.01
  -6  17   4    2.15    1.02
  -6  17   3    4.56    1.76
   6  17  -3    5.83    1.36
  -6  17   3    3.06    1.24
  -6  17   3    6.77    1.21
  -6  17   2    5.63    1.69
  -6  17   2    5.68    1.41
  -6  17   2    4.81    1.20
  -6  17   2    6.08    1.73
  -6  17   1   22.66    2.16
  -6  17   1   23.06    2.15
  -6  17   1   23.17    1.99
  -6  17   1   20.82    1.68
  -6  17   0   52.20    3.15
  -6  17   0   46.74    3.08
  -6  17  -1   22.08    2.00
   6  17   1   20.38    2.11
  -6  17  -1   22.00    1.88
   6  17   1   17.33    1.72
   6  17   2    3.63    1.31
   6  17   2    3.45    1.69
  -6  17  -2    3.43    1.25
  -6  17  -2    3.95    1.49
   6  17   3    2.69    1.26
   6  17   3    2.10    1.73
  -6  17  -3    4.41    1.27
  -6  17  -3    6.24    1.12
  -6  17  -3    4.02    1.39
  -6  17  -4    1.96    1.14
   6  17   4    2.27    1.12
  -6  17  -4    4.36    1.29
  -6 -17   5   -1.68    1.74
  -6  17  -5    1.26    0.94
   6  17   5    0.33    0.89
   6  17   6    2.07    0.64
  -6 -17   6    3.77    1.15
   6 -18   5    0.71    1.25
  -6  18   3    2.77    1.02
  -6  18   3    2.35    1.11
  -6  18   2    1.71    1.26
  -6  18   2    0.31    1.49
  -6  18   2    1.97    1.01
  -6  18   2    0.19    1.52
  -6  18   1   10.76    1.52
  -6  18   1   11.73    1.76
  -6  18   1   13.45    1.76
  -6  18   0    9.42    1.47
   6  18   0    7.23    1.71
  -6  18   0    4.58    1.55
  -6  18   0    5.87    1.59
  -6  18  -1   12.67    1.49
   6  18   1    8.93    1.30
   6  18   1   12.65    1.76
  -6  18  -1   12.50    1.68
  -6  18  -2    0.57    1.10
   6  18   2    1.14    1.12
   6  18   2   -1.20    1.60
  -6  18  -2   -0.60    1.40
  -6  18  -3    1.22    0.95
   6  18   3    3.60    1.13
  -6  18  -3    0.79    1.28
   6  18   4    0.66    0.97
  -6  18  -4    1.07    1.17
   6  18   5    1.85    0.76
  -6 -18   5    1.16    1.41
  -6  18  -5    0.98    0.94
   6  18   6    2.87    0.44
  -6  18  -6    3.00    0.57
   6 -19   5   10.96    1.08
  -6  19   3    1.64    0.96
  -6  19   2    4.50    1.47
  -6  19   1   17.28    1.79
   6  19  -1   16.52    1.42
  -6  19   1   15.79    1.61
  -6  19   1   16.04    1.71
   6  19   0    5.03    1.54
  -6  19   0    4.28    1.46
  -6  19   0    1.96    1.42
  -6  19   0    2.43    1.22
   6  19   1   12.22    1.23
  -6  19  -1   18.32    1.69
   6  19   1   15.32    1.80
  -6  19  -1   16.90    1.55
  -6  19  -2    8.50    1.14
   6  19   2    4.52    1.04
  -6  19  -2    8.32    1.37
   6  19   2    4.74    1.53
  -6  19  -3    3.46    1.16
   6  19   3    1.71    0.92
  -6  19  -4    1.25    0.97
   6  19   4    1.84    0.79
   6  19   5    8.41    0.73
  -6  19  -5    7.14    0.81
   6 -20   4   16.66    1.36
  -6  20   3    4.55    0.86
  -6  20   1    2.28    1.07
   6  20  -1    1.01    0.80
  -6  20   1    2.23    1.28
   6  20  -1    2.98    1.29
  -6  20   0    2.45    1.07
   6  20   0    1.15    0.93
   6  20   0    0.24    1.28
  -6  20   0    3.61    1.30
  -6  20  -1    1.91    1.03
   6  20   1    2.54    1.34
  -6  20  -1    3.89    1.25
  -6  20  -1    2.55    1.22
   6  20   2    0.96    0.70
  -6  20  -2    2.57    1.06
  -6  20  -2    0.02    0.82
  -6  20  -3    5.52    1.01
   6  20   3    3.98    0.74
   6  20   4   15.82    1.12
   6  20   4   18.15    1.08
  -6  21   1    3.87    0.91
  -6  21   0    2.49    0.86
   6  21   0    1.00    0.71
  -6  21  -1    3.30    0.83
   6  21   1    3.54    0.81
   6  21   2    3.40    0.76
   6  21   3    2.22    0.62
  -6  22   1    2.90    0.62
  -6  22   0    1.22    0.60
   6  22   1    2.21    0.50
   6  22   2    0.59    0.41
  -7   0   0   49.19    2.74
   7   0   1   32.33    1.87
  -7   0   1   29.64    1.97
  -7   0   1   29.32    2.13
   7   0   2    8.66    1.65
  -7   0   2    9.50    1.66
  -7   0   2    7.80    1.53
   7   0   3   19.32    2.18
  -7   0   3   17.00    2.12
   7   0   4    4.39    2.03
  -7   0   4    3.29    1.99
   7   0   4    1.91    2.39
  -7   0   4    4.70    1.60
   7   0   5    6.05    2.22
  -7   0   5    4.57    2.15
  -7   0   5    7.30    1.31
  -7   0   5    5.87    1.45
  -7   0   5    5.18    1.35
   7   0   5    5.33    2.56
   7   0   6    2.47    1.51
  -7   0   6    2.46    1.52
   7   0   6    0.08    2.34
  -7   0   6    2.74    2.36
  -7   0   6    0.25    1.40
  -7   0   6    1.87    1.39
   7   0   6    1.47    2.87
  -7   0   7    0.09    1.57
   7   0   7    1.03    2.33
  -7   0   7    1.81    2.33
  -7   0   7    1.26    1.28
   7   0   7    5.88    2.98
   7   0   7    0.87    1.62
  -7   0   7   -0.88    1.54
  -7   0   8    2.96    1.30
   7   0   8    1.45    1.46
  -7   0   8    0.37    1.40
  -7   0   9    1.51    0.86
  -7   0   9    0.37    1.04
  -7   1   9   11.01    1.12
   7  -1   9   12.16    1.24
  -7   1   8   42.69    2.54
  -7   1   8   42.92    2.58
   7  -1   8   37.29    2.65
  -7   1   7    8.93    1.68
  -7   1   7    6.06    1.62
   7  -1   7    7.93    1.74
  -7   1   7    8.47    2.24
   7  -1   7    7.57    2.63
  -7   1   7    8.49    1.46
   7  -1   7   15.52    3.22
  -7   1   6    0.75    1.43
   7  -1   6    2.42    1.56
  -7   1   6   -1.09    2.19
   7  -1   6    1.67    2.46
  -7   1   6    1.10    1.33
   7  -1   6    0.36    2.94
  -7   1   6    2.04    1.47
   7  -1   5    9.48    2.48
  -7   1   5   13.77    2.34
  -7   1   5   14.49    1.55
  -7   1   5   14.30    1.50
   7  -1   5   12.74    2.83
  -7   1   4   12.43    2.21
   7  -1   4   14.92    2.30
  -7   1   3  235.81   11.86
   7  -1   3  244.60   11.94
  -7   1   2   44.17    2.73
  -7   1   2   44.43    2.75
   7  -1   2   41.42    2.81
  -7  -1  -1  186.56    9.59
  -7   1   1  206.99    9.66
   7  -1   1  205.24    9.71
  -7   1   0   17.07    1.56
  -7  -1   0   19.34    1.56
  -7  -1   1  213.22    9.67
   7   1   1  204.32    9.48
  -7  -1   2   42.33    2.70
   7   1   2   44.88    2.70
  -7  -1   2   42.29    2.80
   7   1   3  241.62   11.23
  -7  -1   3  199.71   11.03
   7   1   3  228.82   11.06
  -7  -1   3  226.44   11.14
   7   1   4    8.83    2.44
  -7  -1   4    9.33    2.33
  -7  -1   4    7.98    1.77
   7   1   4   10.03    2.21
  -7  -1   4   11.38    2.21
  -7  -1   5   12.86    1.50
  -7  -1   5   14.55    1.64
  -7  -1   5   12.09    2.38
   7   1   5   15.17    2.46
   7   1   5   14.07    2.77
  -7  -1   5   13.72    1.97
   7   1   6    0.63    1.48
  -7  -1   6    1.21    1.49
  -7  -1   6    1.63    2.30
   7   1   6    0.44    2.21
  -7  -1   6    1.93    1.49
  -7  -1   6    1.83    1.40
   7   1   6    3.35    2.70
  -7  -1   7    8.89    1.71
   7   1   7   11.93    2.40
  -7  -1   7    9.93    2.61
  -7  -1   7    9.11    1.45
   7   1   7    8.52    2.82
   7   1   7    4.33    1.64
  -7  -1   7    7.27    1.71
  -7  -1   8   42.38    2.57
   7   1   8   39.12    2.62
  -7  -1   8   44.90    2.72
  -7  -1   9    8.99    1.01
  -7  -1   9   12.04    1.23
  -7   2   9    4.02    0.93
   7  -2   9    4.09    1.08
  -7   2   8   16.12    1.62
  -7   2   8   16.63    1.61
   7  -2   8   17.56    1.83
  -7   2   7    8.06    2.17
   7  -2   7    5.74    2.69
  -7   2   7    6.31    1.43
  -7   2   7    5.21    1.50
   7  -2   7    5.08    1.76
  -7   2   7    3.96    1.59
   7  -2   7    5.16    3.06
   7  -2   6    9.42    2.65
  -7   2   6   10.40    2.20
   7  -2   6    9.74    1.76
  -7   2   6    8.04    1.52
  -7   2   6   10.14    1.50
  -7   2   6    8.00    1.66
   7  -2   6    6.64    3.13
  -7   2   5   43.32    2.55
  -7   2   5   38.04    2.50
  -7   2   5   45.00    3.22
   7  -2   5   45.60    3.61
  -7   2   5   37.68    2.48
  -7   2   4  107.60    6.11
   7  -2   4  118.68    6.33
  -7   2   3  191.83    9.79
   7  -2   3  202.03    9.95
  -7   2   2   29.91    2.07
  -7   2   1 1277.19   60.93
  -7   2   1 1298.52   60.87
  -7   2   0   84.68    4.62
   7   2   0  104.78    4.62
   7   2   1 1325.42   62.43
   7   2   1 1320.20   62.46
  -7  -2   2   29.90    2.18
  -7  -2   2   31.38    2.29
   7   2   2   30.71    2.41
   7   2   2   30.48    2.10
   7   2   3  209.02   10.49
  -7  -2   3  210.25   10.45
   7   2   3  212.19   10.37
  -7  -2   3  203.39   10.50
   7   2   4  112.16    6.45
  -7  -2   4  117.19    6.21
  -7  -2   4  116.12    6.42
   7   2   4  117.42    6.26
  -7  -2   4  113.74    6.44
  -7  -2   5   37.99    2.71
  -7  -2   5   45.92    2.75
   7   2   5   46.12    3.69
  -7  -2   5   46.40    3.62
  -7  -2   5   42.24    3.15
   7   2   5   47.04    3.32
  -7  -2   5   44.84    3.58
  -7  -2   6    8.18    1.71
   7   2   6    9.69    1.58
  -7  -2   6    9.96    1.53
  -7  -2   6    9.15    1.64
   7   2   6   12.12    2.78
  -7  -2   6    9.13    2.57
   7   2   6    8.39    2.20
  -7  -2   7    6.95    1.38
   7   2   7    6.43    2.67
   7   2   7    2.32    1.53
  -7  -2   7    5.39    1.67
   7   2   7    7.41    2.21
  -7  -2   7    7.56    2.67
  -7  -2   8   16.46    1.60
   7   2   8   15.69    1.64
  -7  -2   8   16.35    1.81
  -7  -2   9    4.39    1.11
  -7   3   9    3.78    0.92
   7  -3   9    3.24    1.06
  -7   3   8    0.48    1.25
   7  -3   8    1.71    1.53
  -7   3   8    1.01    1.21
  -7   3   7   31.03    2.17
  -7   3   7   30.87    2.26
   7  -3   7   29.13    3.47
  -7   3   7   29.75    2.83
  -7   3   7   26.58    2.12
   7  -3   7   26.93    2.38
  -7   3   6    9.37    1.54
   7  -3   6   10.39    1.88
  -7   3   6   10.50    1.71
  -7   3   6   11.90    1.56
  -7   3   6   10.68    1.62
  -7   3   6   11.99    2.19
   7  -3   6    9.91    2.82
  -7   3   5   20.05    1.73
   7  -3   5   25.18    2.88
  -7   3   5   22.71    2.33
  -7   3   5   17.05    1.82
  -7   3   5   18.55    1.70
  -7   3   5   16.85    1.68
   7  -3   5   19.29    1.96
  -7   3   4   34.34    2.73
   7  -3   4   38.43    3.22
  -7   3   3   10.39    1.63
   7  -3   3    8.45    2.15
  -7   3   2   48.32    3.27
  -7   3   2   54.99    3.02
  -7   3   1  107.86    5.61
   7   3  -1  114.35    5.55
  -7   3   1  111.02    5.49
   7   3   0   61.37    3.23
  -7   3   0   66.35    3.27
  -7   3  -1  112.65    5.01
   7   3   1  102.60    5.07
   7   3   1  107.13    4.98
   7   3   2   51.19    2.85
  -7  -3   2   46.59    2.98
   7   3   2   47.47    3.01
   7   3   2   48.44    2.97
   7   3   3    8.37    2.06
  -7  -3   3    9.76    2.03
   7   3   3    9.46    1.67
  -7  -3   3    6.02    2.07
   7   3   4   36.07    3.12
  -7  -3   4   36.31    2.72
  -7  -3   4   35.36    3.14
   7   3   4   36.87    2.79
  -7  -3   4   34.46    3.09
   7   3   5   18.82    1.67
  -7  -3   5   16.62    1.92
  -7  -3   5   20.19    1.85
  -7  -3   5   17.79    2.22
   7   3   5   16.01    2.72
  -7  -3   5   18.80    2.83
   7   3   5   19.45    2.26
  -7  -3   5   20.08    2.83
   7   3   6    9.86    1.56
  -7  -3   6    9.25    1.79
  -7  -3   6   11.85    1.58
  -7  -3   6   12.01    1.65
  -7  -3   6    8.02    1.96
   7   3   6    8.34    2.63
   7   3   6    9.11    2.19
  -7  -3   6   10.96    2.75
  -7  -3   7   24.97    2.01
   7   3   7   29.76    2.15
  -7  -3   7   29.71    2.33
  -7  -3   7   27.90    3.31
   7   3   7   27.84    2.85
  -7  -3   8    3.25    1.25
  -7  -3   8    2.32    1.52
  -7  -3   9    2.73    1.09
  -7   4   9    0.31    0.84
   7  -4   9    1.38    1.01
  -7   4   8    4.72    1.29
   7  -4   8    3.09    1.58
  -7   4   7    8.04    1.47
  -7   4   7    7.44    1.52
   7  -4   7    8.66    2.73
  -7   4   7    8.11    2.05
   7  -4   7    7.25    1.84
  -7   4   7    7.05    1.48
  -7   4   6   81.09    4.57
   7  -4   6   90.26    4.85
  -7   4   6   83.97    4.63
  -7   4   6   86.96    4.63
  -7   4   6   89.23    4.65
  -7   4   6   85.61    5.20
   7  -4   6  102.77    5.87
  -7   4   5   42.58    3.10
   7  -4   5   49.90    3.82
  -7   4   5   41.87    2.60
  -7   4   5   37.12    2.46
   7  -4   5   41.72    2.80
  -7   4   5   42.41    2.60
   7  -4   4   49.10    3.52
  -7   4   4   37.46    2.87
  -7   4   3   13.21    1.74
  -7   4   2   79.59    4.39
  -7   4   2   77.94    4.15
  -7   4   1  189.18    9.94
   7   4  -1  218.91    9.90
  -7   4   1  202.85    9.84
   7   4   0   95.25    4.37
  -7   4   0   78.33    4.37
   7   4   1  213.06    9.98
  -7   4  -1  200.13    9.93
   7   4   1  205.03    9.91
   7   4   2   83.88    4.46
  -7  -4   2   82.40    4.50
   7   4   2   87.67    4.58
   7   4   2   85.16    4.43
  -7  -4   3   10.21    2.17
   7   4   3   12.43    1.94
   7   4   3   12.60    1.74
  -7  -4   4   42.94    3.05
   7   4   4   43.90    3.25
  -7  -4   4   44.18    3.44
   7   4   4   47.23    3.02
  -7  -4   4   39.48    3.44
   7   4   5   38.98    2.48
  -7  -4   5   36.32    2.71
  -7  -4   5   43.03    2.65
   7   4   5   40.29    3.33
  -7  -4   5   44.14    3.66
  -7  -4   5   41.24    3.09
   7   4   5   44.28    3.09
  -7  -4   5   47.59    3.66
   7   4   6   81.89    4.51
  -7  -4   6   85.29    4.71
  -7  -4   6   81.44    4.55
  -7  -4   6   84.35    4.59
  -7  -4   6   99.05    5.67
  -7  -4   6   78.15    5.10
   7   4   6   99.30    5.25
  -7  -4   6   93.12    5.73
  -7  -4   7    9.23    2.76
   7   4   7    6.91    2.02
  -7  -4   7    8.10    1.34
  -7  -4   7   10.80    1.84
   7   4   7    5.32    1.45
  -7  -4   8    4.64    1.20
  -7  -4   8    6.01    1.56
  -7  -4   9    0.75    1.07
  -7   5   9    2.52    0.82
   7  -5   9    1.76    0.99
  -7   5   8    5.59    1.31
   7  -5   8    7.69    1.60
  -7   5   7    2.59    1.78
   7  -5   7    3.96    2.67
   7  -5   7    3.10    3.26
  -7   5   7    0.78    1.41
   7  -5   7    4.55    1.83
  -7   5   6   73.69    4.83
   7  -5   6   81.88    5.53
  -7   5   6   75.86    4.24
   7  -5   6   80.10    4.60
   7  -5   6   85.57    6.11
  -7   5   6   85.39    4.36
  -7   5   5   11.22    1.46
  -7   5   5    8.94    1.15
   7  -5   5    7.70    3.20
  -7   5   5    7.72    1.33
   7  -5   5   10.04    1.88
  -7   5   5   11.29    1.93
   7  -5   5   11.67    2.84
  -7   5   5   10.43    1.39
  -7   5   5    9.74    1.46
  -7   5   4   13.89    1.85
   7  -5   4   10.14    2.57
  -7   5   3    4.72    2.07
  -7   5   3    3.95    1.45
  -7   5   2   47.47    3.14
  -7   5   2   46.13    2.77
  -7   5   1   39.17    2.43
   7   5  -1   38.32    2.31
  -7   5   1   33.45    2.15
   7   5   0    1.84    1.04
  -7   5   0    3.04    1.17
  -7   5  -1   38.79    2.07
   7   5   1   30.91    1.92
  -7  -5   1   26.17    1.68
   7   5   1   34.39    2.16
   7   5   2   39.23    2.53
  -7  -5   2   36.94    2.64
  -7   5  -2   46.40    2.58
   7   5   2   41.03    2.75
   7   5   3    2.52    1.45
   7   5   3    4.52    1.84
  -7  -5   3    4.58    1.94
   7   5   4   11.59    1.83
  -7  -5   4   12.90    2.59
  -7  -5   4    9.56    1.80
  -7  -5   4   11.39    2.38
   7   5   5   11.02    1.43
  -7  -5   5   13.74    2.82
   7   5   5   10.77    1.96
   7   5   5    8.45    1.33
  -7  -5   5    7.09    1.81
   7   5   5    9.21    1.21
  -7  -5   5   10.21    2.03
  -7  -5   5    6.81    2.56
  -7  -5   5   11.09    1.53
   7   5   6   64.05    4.25
  -7  -5   6   74.36    4.96
   7   5   6   68.26    3.67
  -7  -5   6   74.71    3.97
   7   5   6   66.52    3.53
  -7  -5   6   70.44    3.74
  -7  -5   6   65.13    4.78
  -7  -5   6   54.77    4.20
  -7  -5   6   56.83    3.64
  -7  -5   7    3.54    1.16
   7   5   7    1.13    1.80
  -7  -5   7    3.79    2.68
  -7  -5   7    4.78    1.78
  -7  -5   8    7.81    1.64
  -7  -5   9    2.35    1.07
   7  -6   9    0.72    0.94
  -7   6   9    3.22    0.79
   7  -6   8    1.14    1.47
  -7   6   8    0.32    1.14
  -7   6   7   15.03    1.65
   7  -6   7   15.67    2.06
   7  -6   6   18.62    2.32
   7  -6   6   17.15    3.83
  -7   6   6   15.69    2.19
   7  -6   6   25.04    3.39
  -7   6   6   15.23    1.79
   7  -6   5   17.01    3.58
  -7   6   5   18.10    1.57
   7  -6   5   13.25    2.08
  -7   6   5   17.59    1.61
  -7   6   5   15.18    1.42
  -7   6   5   18.87    2.12
   7  -6   5   18.71    3.07
  -7   6   4    2.38    1.51
  -7   6   3    7.41    1.45
  -7   6   3    9.52    2.07
  -7   6   3    7.75    1.45
  -7   6   2   17.05    2.13
  -7   6   2   15.54    1.60
  -7   6   2   14.07    1.51
   7   6  -2   17.71    1.80
  -7   6   1   17.48    1.89
  -7   6   1   16.52    1.50
   7   6  -1   20.95    1.73
  -7   6   0  271.28   13.15
   7   6   0  272.94   13.13
   7   6   1   18.78    1.77
  -7   6  -1   17.75    1.61
   7   6   2   18.48    1.99
  -7  -6   2   15.68    1.84
   7   6   2   16.96    1.66
  -7   6  -2   16.28    1.65
  -7  -6   3   11.71    2.07
   7   6   3   10.49    1.59
   7   6   3    7.69    1.99
  -7  -6   4    3.20    2.24
  -7  -6   4    3.31    1.67
   7   6   4    2.34    1.57
   7   6   5   15.59    2.13
  -7  -6   5   18.08    3.03
   7   6   5   17.05    1.46
  -7  -6   5   14.15    2.04
  -7  -6   5   17.83    1.70
  -7  -6   5   21.16    2.35
  -7  -6   5   19.91    2.83
   7   6   5   16.63    1.67
   7   6   6   16.42    2.24
  -7  -6   6   18.94    3.19
  -7  -6   6   15.48    2.15
   7   6   6   14.91    1.50
  -7  -6   6   17.38    1.68
  -7  -6   6   15.66    2.32
  -7  -6   6   17.62    2.94
  -7  -6   6   11.93    1.58
  -7  -6   7   13.04    2.03
   7   6   7   14.06    1.42
  -7  -6   8    2.31    1.55
  -7  -6   9    1.68    1.01
   7  -7   9    1.21    0.84
  -7   7   9    2.28    0.73
   7  -7   8    2.94    1.42
  -7   7   8    2.17    1.12
   7  -7   7   24.20    2.28
  -7   7   7   21.23    1.88
  -7   7   6   20.27    1.63
   7  -7   6   21.43    2.41
   7  -7   6   17.79    3.97
   7  -7   6   23.92    3.49
  -7   7   6   16.67    2.23
  -7   7   6   20.30    1.84
  -7   7   5   10.22    1.38
   7  -7   5    8.57    2.03
  -7   7   5   10.18    1.31
  -7   7   5    9.52    1.81
   7  -7   5    7.76    2.87
  -7   7   4   21.60    1.66
  -7   7   4   17.94    2.04
  -7   7   4   21.08    1.58
  -7   7   4   20.15    1.61
  -7   7   3    3.80    1.39
  -7   7   3    3.17    2.07
   7   7  -3    4.17    1.62
  -7   7   3    2.16    1.40
  -7   7   2  111.28    5.95
   7   7  -2  114.67    6.04
  -7   7   2  116.42    5.83
  -7   7   2  124.82    6.30
   7   7  -1   72.05    4.06
  -7   7   1   79.17    4.28
  -7   7   0   93.74    4.80
   7   7   0   87.98    4.75
  -7   7  -1   85.46    4.20
   7   7   1   69.22    4.26
   7   7   2  101.32    5.54
  -7  -7   2   85.31    5.25
   7   7   2  101.72    5.12
   7   7   2  103.64    5.29
  -7  -7   3    2.20    1.90
  -7   7  -3    4.60    1.55
   7   7   3    2.55    1.94
   7   7   3    4.35    1.48
   7   7   3    2.15    1.34
  -7  -7   4   16.19    2.13
  -7  -7   4   17.07    2.47
   7   7   4   16.96    1.41
   7   7   4   16.59    1.69
   7   7   4   17.45    1.96
  -7   7  -4   16.97    2.15
  -7   7  -5   12.45    2.14
   7   7   5    9.38    1.51
   7   7   5    7.65    1.85
  -7  -7   5    7.52    2.87
  -7  -7   5    7.70    1.42
  -7  -7   5    7.21    1.95
  -7  -7   5    7.14    2.02
  -7  -7   5   11.45    2.53
   7   7   5    8.57    1.25
  -7  -7   6   12.54    2.35
  -7  -7   6   18.41    2.32
   7   7   6   15.59    2.18
  -7  -7   6   19.11    3.35
   7   7   6   18.27    1.60
  -7   7  -6   19.97    2.62
  -7  -7   6   18.20    1.65
  -7  -7   7   22.75    2.30
  -7  -7   8    3.51    1.52
  -7   7  -9    1.64    0.68
  -7   8   9    3.56    0.66
   7  -8   9    2.56    0.73
  -7   8   8    1.93    1.03
   7  -8   8    0.97    1.37
  -7   8   7    4.02    1.32
   7  -8   7    6.97    1.90
  -7   8   6    9.27    1.55
  -7   8   6   10.91    1.35
   7  -8   6   10.01    2.22
   7  -8   6   10.43    3.09
  -7   8   6    7.46    1.86
   7   8  -6    9.19    2.38
   7  -8   6   11.73    3.74
   7   8  -5    6.95    2.19
  -7   8   5    7.68    1.29
   7  -8   5    7.78    3.05
  -7   8   5    7.84    1.74
  -7   8   4   25.88    1.91
   7   8  -4   26.40    2.61
  -7   8   4   28.44    1.98
  -7   8   4   29.42    1.86
  -7   8   4   27.93    2.33
  -7   8   3    5.35    1.42
  -7   8   3    4.36    2.13
   7   8  -3    4.67    1.68
  -7   8   3    5.26    1.48
  -7   8   2   55.47    3.22
  -7   8   2   56.63    3.70
   7   8  -2   60.19    3.45
  -7   8   2   52.22    3.15
  -7   8   1  284.52   15.21
   7   8  -1  316.39   14.89
   7   8  -1  325.97   15.17
   7   8   0   39.12    2.14
  -7   8   0   36.88    2.15
  -7   8   0   35.07    2.54
   7   8   0   41.23    2.56
   7   8   1  322.06   14.32
  -7   8  -1  282.28   13.94
  -7   8  -1  293.55   14.20
  -7   8  -2   60.91    3.46
   7   8   2   53.82    3.20
   7   8   2   59.15    3.36
   7   8   2   63.37    3.77
   7   8   3    3.67    1.41
   7   8   3    3.63    1.45
   7   8   3    6.54    2.13
  -7   8  -3    5.15    1.57
  -7   8  -4   28.51    2.55
   7   8   4   29.90    2.40
   7   8   4   24.59    1.81
  -7  -8   4   28.03    2.63
   7   8   4   30.05    2.12
   7   8   5    6.75    1.25
  -7   8  -5    7.90    2.14
  -7  -8   5    8.64    2.99
   7   8   5    8.10    1.82
  -7  -8   5    4.66    2.04
   7   8   5    7.14    1.52
  -7  -8   6    9.01    2.18
  -7   8  -6   11.46    2.31
  -7  -8   6    8.45    3.10
   7   8   6    7.39    1.89
   7   8   6    8.87    1.38
  -7  -8   6    5.68    2.10
  -7  -8   7   11.33    2.07
  -7  -8   8    2.69    1.44
  -7   8  -9    1.92    0.61
  -7   9   9    3.29    0.56
  -7   9   8    1.43    0.93
   7  -9   8    2.01    1.27
  -7   9   7    8.43    1.34
   7  -9   7   12.23    1.99
   7  -9   6    8.51    2.17
   7   9  -6    6.84    2.25
   7  -9   6   15.54    3.30
  -7   9   6    9.60    1.83
   7  -9   6   10.36    3.77
  -7   9   6    9.81    1.34
  -7   9   5    8.41    1.42
   7   9  -5   10.23    2.25
  -7   9   5    7.96    1.81
   7  -9   5    8.80    3.22
  -7   9   4    9.34    1.75
   7   9  -4   11.12    2.05
  -7   9   4    9.82    1.37
  -7   9   4   10.25    1.36
  -7   9   3   11.20    2.44
   7   9  -3    4.69    1.76
  -7   9   3    7.69    1.49
  -7   9   3    9.61    1.74
  -7   9   3    9.02    1.70
   7   9  -2   43.91    3.13
  -7   9   2   47.67    2.91
   7   9  -1   55.14    3.28
   7   9  -1   50.45    2.86
  -7   9   1   57.07    3.48
   7   9   0    3.82    0.99
  -7   9   0    2.49    0.97
   7   9   0    2.07    1.42
  -7   9   0    4.21    1.48
  -7   9  -1   55.16    3.26
  -7   9  -1   53.36    2.87
   7   9   1   54.25    3.42
   7   9   2   44.32    2.73
  -7   9  -2   48.19    3.00
   7   9   2   47.85    3.30
   7   9   3    7.32    1.57
   7   9   3    6.23    1.16
   7   9   3   11.10    2.24
  -7   9  -3    6.78    1.74
   7   9   3    7.17    1.53
   7   9   4   10.58    1.79
   7   9   4    9.48    1.59
  -7   9  -4   10.24    1.91
   7   9   4    8.10    1.26
   7   9   5    7.89    1.33
   7   9   5    7.51    1.58
  -7  -9   5    7.67    3.23
   7   9   5    6.65    1.76
  -7   9  -5    8.53    2.16
  -7  -9   5    5.88    2.13
  -7  -9   6   10.62    2.22
  -7  -9   6    7.55    2.16
  -7  -9   6   13.12    3.31
   7   9   6    7.95    1.85
   7   9   6    8.23    1.36
  -7   9  -6   10.10    2.22
  -7  -9   7    8.91    2.02
  -7  -9   8    2.56    1.39
   7   9   8    0.43    0.98
   7 -10   8    0.95    1.18
  -7  10   8    0.91    0.85
   7 -10   7    5.25    1.78
  -7  10   7    2.52    1.16
   7 -10   6    3.77    2.08
  -7  10   6    5.88    1.27
  -7  10   5  117.48    5.92
   7 -10   5  113.77    7.21
   7  10  -5  113.33    6.48
  -7  10   5  117.21    5.79
  -7  10   5  101.58    6.16
  -7  10   4    1.19    1.46
  -7  10   4    4.65    2.53
   7  10  -4    2.20    1.86
  -7  10   4    1.58    1.23
  -7  10   4    1.23    1.15
  -7  10   3    5.81    1.71
  -7  10   3    3.62    1.21
  -7  10   3    5.84    1.63
  -7  10   3    7.96    2.34
   7  10  -3    5.09    1.76
  -7  10   3    4.10    1.45
  -7  10   3    4.97    1.10
  -7  10   2   55.85    3.85
  -7  10   2   58.42    3.27
  -7  10   2   56.38    3.25
   7  10  -2   57.92    3.54
  -7  10   2   50.78    3.09
  -7  10   1    4.69    1.89
   7  10  -1    5.95    1.59
   7  10  -1    6.15    1.11
   7  10   0    4.14    1.59
  -7  10   0    5.31    1.65
   7  10   0    4.37    1.06
  -7  10   0    4.00    1.08
   7  10   1    5.97    1.80
  -7  10  -1    4.54    1.49
  -7  10  -1    3.12    1.00
  -7  10  -2   50.62    3.30
   7  10   2   54.87    3.13
   7  10   2   53.54    3.10
   7  10   2   58.38    3.71
  -7  10  -2   54.76    2.95
   7  10   2   50.32    2.90
   7  10   3    7.83    2.18
  -7  10  -3    5.34    1.71
   7  10   3    3.24    1.49
  -7  10  -3    4.91    1.05
   7  10   4    2.45    1.51
   7  10   4    2.70    1.39
  -7  10  -4    1.75    1.75
   7  10   4    0.64    2.35
   7  10   5  107.88    6.11
   7  10   5  115.59    5.85
  -7  10  -5  108.13    6.32
  -7 -10   5  100.45    6.45
  -7 -10   6    4.85    2.26
  -7 -10   7    2.88    1.85
  -7 -10   8    2.92    1.30
  -7  10  -8    0.53    0.93
   7  10   8    0.65    0.89
   7 -11   8    3.75    1.06
  -7  11   8    2.71    0.80
   7 -11   7    5.79    1.66
   7 -11   6    5.48    2.10
  -7  11   6    5.14    1.26
   7 -11   5   51.68    4.77
  -7  11   5   58.25    3.28
   7  11  -5   46.55    3.80
  -7  11   5   58.60    3.11
  -7  11   5   48.08    3.49
  -7  11   4    8.85    1.75
   7  11  -4    8.08    2.10
  -7  11   4    8.88    2.83
  -7  11   4    9.31    1.32
  -7  11   3    7.27    1.35
  -7  11   3    8.39    2.51
   7  11  -3    5.83    1.87
  -7  11   3    7.89    1.91
  -7  11   3    7.29    1.15
  -7  11   3    6.62    1.83
   7  11  -2    9.22    1.35
  -7  11   2   13.27    1.66
   7  11  -2    7.86    1.80
  -7  11   2   16.83    2.41
  -7  11   2   11.99    1.17
  -7  11   2   14.45    1.46
  -7  11   2   13.81    1.82
  -7  11   1    7.58    1.97
   7  11  -1    6.44    1.67
  -7  11   1    9.32    1.47
   7  11  -1    6.50    1.21
  -7  11   0    9.02    1.30
  -7  11   0    7.26    1.78
   7  11   0    5.29    1.81
  -7  11   0    8.50    1.22
   7  11   0    7.93    1.20
   7  11   1   10.07    1.35
  -7  11  -1    8.12    1.18
   7  11   1    9.04    2.02
  -7  11  -1    8.41    1.68
  -7  11  -1    7.56    1.35
   7  11   1    7.55    1.46
   7  11   2    8.61    1.51
  -7  11  -2   11.39    1.29
   7  11   2    8.78    1.62
  -7  11  -2    9.62    1.33
  -7  11  -2   10.20    1.77
   7  11   2   13.77    2.31
  -7  11  -2   11.30    1.27
   7  11   2   10.02    1.36
   7  11   3    8.64    1.56
   7  11   3    9.50    1.75
   7  11   3    7.18    2.40
  -7  11  -3    6.00    1.79
  -7  11  -3    5.47    1.18
  -7  11  -3    7.22    1.28
   7  11   3    7.96    1.33
   7  11   4   10.57    1.70
  -7  11  -4    9.07    2.06
   7  11   4    7.98    2.62
   7  11   5   46.75    3.47
   7  11   5   60.13    3.28
  -7  11  -5   60.18    3.82
  -7 -11   5   47.92    4.80
  -7 -11   5   40.67    3.79
  -7 -11   6    7.02    2.26
   7  11   6    6.24    1.38
   7  11   7    1.79    1.16
  -7  11  -7    0.45    1.14
  -7 -11   8    4.59    1.20
  -7  11  -8    2.32    0.89
   7 -12   8   13.13    1.11
   7 -12   7    6.87    1.59
   7 -12   6   19.11    2.34
  -7  12   6   18.34    1.57
  -7  12   6   18.09    1.61
  -7  12   5    5.95    1.37
   7 -12   5    3.13    3.00
   7 -12   5    6.46    3.68
  -7  12   5    7.08    1.31
   7  12  -5    6.57    2.08
   7  12  -4   26.47    2.73
  -7  12   4   27.53    2.01
  -7  12   4   27.83    1.91
  -7  12   4   26.38    3.40
  -7  12   3    3.70    1.32
  -7  12   3    4.72    1.11
  -7  12   3    3.11    1.85
   7  12  -3    2.40    1.27
  -7  12   3    5.99    2.02
   7  12  -3    4.08    1.90
  -7  12   3    6.15    2.72
  -7  12   2    2.11    1.19
  -7  12   2    3.02    0.96
   7  12  -2    1.53    1.15
  -7  12   2    1.62    1.62
  -7  12   2    1.94    2.32
   7  12  -2    1.78    1.76
  -7  12   2    2.30    1.59
   7  12  -1    2.93    1.19
   7  12  -1    5.58    1.72
  -7  12   1    2.93    1.97
  -7  12   1    3.57    1.45
  -7  12   1    2.94    1.12
  -7  12   0    2.68    1.24
   7  12   0    3.37    1.29
  -7  12   0    3.90    1.00
   7  12   0    4.46    1.86
  -7  12   0    2.59    1.78
  -7  12  -1    3.28    1.11
  -7  12  -1    3.23    1.59
   7  12   1    2.38    1.89
  -7  12  -1    2.53    1.22
   7  12   1    2.53    1.32
   7  12   1    3.04    1.36
  -7  12  -2    1.24    1.08
   7  12   2    2.08    1.49
   7  12   2    3.97    2.21
  -7  12  -2    2.67    1.64
  -7  12  -2    1.75    1.17
   7  12   2    1.41    1.28
   7  12   2    2.26    1.43
   7  12   3    5.63    1.54
  -7  12  -3    6.67    1.32
   7  12   3    3.71    1.38
  -7  12  -3    4.58    1.15
  -7  12  -3    2.26    1.28
   7  12   3    3.58    1.70
   7  12   3    1.84    2.37
  -7  12  -3    0.95    1.82
  -7  12  -4   24.70    2.59
   7  12   4   25.89    3.21
  -7  12  -4   26.87    2.09
  -7  12  -5    8.06    2.06
  -7 -12   5    4.31    2.22
  -7  12  -5    7.46    1.45
  -7 -12   5    4.21    3.21
   7  12   6   16.06    1.63
   7  12   6   17.85    1.66
  -7  12  -6   18.72    1.72
  -7 -12   6   17.04    2.40
  -7  12  -7    2.23    1.03
  -7  12  -7    2.76    1.16
   7  12   7    3.43    1.08
  -7 -12   7    5.23    1.66
  -7  12  -8   11.63    1.01
   7 -13   7    7.37    1.39
   7  13  -7    2.56    1.01
  -7  13   6    6.53    1.11
   7 -13   6    5.72    1.90
  -7  13   5   13.12    1.40
  -7  13   5   15.05    1.60
  -7  13   4    6.49    1.39
  -7  13   4    6.96    1.18
  -7  13   4    6.32    2.73
   7  13  -4    5.26    2.04
  -7  13   4    7.06    1.32
   7  13  -4    4.89    1.41
  -7  13   3    4.88    1.35
  -7  13   3    7.18    2.75
   7  13  -3    4.09    1.98
  -7  13   3    8.83    2.00
   7  13  -3    6.01    1.07
  -7  13   3    6.02    1.13
   7  13  -3    6.53    1.38
  -7  13   3    5.75    1.95
  -7  13   2  177.15    8.83
  -7  13   2  182.65    9.00
  -7  13   2  176.36    9.61
  -7  13   2  167.54    8.60
   7  13  -2  176.06    9.27
   7  13  -2  183.69    8.78
  -7  13   2  188.85    8.96
   7  13  -1    4.13    1.82
  -7  13   1    3.37    2.12
   7  13  -1    1.98    1.27
  -7  13   1    2.01    1.51
  -7  13   1    0.93    1.11
   7  13   0   -0.37    1.86
  -7  13   0   -0.36    1.78
  -7  13   0    1.76    1.31
  -7  13   0    0.63    1.42
   7  13   0    1.44    1.30
   7  13   1    2.77    1.39
  -7  13  -1    1.68    1.71
   7  13   1    1.43    2.13
  -7  13  -1    1.14    1.29
   7  13   1    1.93    1.44
  -7  13  -1    0.81    1.14
   7  13   2  184.21    8.90
   7  13   2  175.15    9.54
  -7  13  -2  166.88    8.84
   7  13   2  185.56    8.73
  -7  13  -2  176.44    8.72
  -7  13  -2  163.60    9.17
   7  13   2  179.49    8.90
   7  13   3    7.09    1.62
   7  13   3    4.86    2.48
  -7  13  -3    5.45    1.98
  -7  13  -3    5.36    1.29
   7  13   3    5.01    1.44
  -7  13  -3    7.05    1.38
   7  13   3    3.59    1.86
   7  13   4    4.11    2.53
  -7  13  -4    4.33    1.90
  -7  13  -4    7.84    1.39
  -7  13  -4    7.69    1.50
  -7  13  -5   11.57    1.50
  -7  13  -5   11.32    1.60
  -7  13  -6    5.55    1.32
   7  13   6    4.65    1.26
  -7  13  -6    4.83    1.20
   7  13   6    3.14    1.17
  -7 -13   6    3.58    2.00
  -7  13  -7    4.58    1.05
   7  13   7    5.03    1.03
  -7  13  -7    3.19    0.94
  -7 -13   7    7.25    1.51
  -7  13  -8    3.45    0.61
   7 -14   7    6.31    1.18
   7 -14   6    5.65    1.74
  -7  14   6    5.67    1.02
   7  14  -6    3.29    1.15
  -7  14   5    5.28    1.09
   7  14  -5    3.89    1.29
  -7  14   4   24.25    1.67
  -7  14   4   22.76    1.83
   7  14  -4   25.21    1.95
   7  14  -4   20.14    1.64
  -7  14   4   23.31    1.93
  -7  14   3    7.02    1.98
   7  14  -3    6.80    1.05
  -7  14   3    6.98    1.40
  -7  14   3   10.22    2.68
   7  14  -3    6.81    2.04
  -7  14   3    6.49    1.40
  -7  14   3    7.01    1.16
   7  14  -3    7.48    1.42
  -7  14   3    5.14    1.91
   7  14  -2   12.79    1.62
  -7  14   2   11.80    1.95
   7  14  -2   15.80    2.31
  -7  14   2   15.55    2.76
  -7  14   2    9.55    1.58
  -7  14   2   12.00    2.05
  -7  14   2   12.93    1.52
   7  14  -1   11.62    2.27
  -7  14   1   11.89    2.59
  -7  14   1   14.88    1.82
  -7  14   1   11.49    1.42
   7  14  -1   14.63    1.61
   7  14   0    8.02    1.42
  -7  14   0    7.61    1.55
  -7  14   0    6.63    1.63
   7  14   0    9.47    2.25
  -7  14   0    9.77    2.23
  -7  14  -1   13.58    2.26
   7  14   1   11.58    2.48
   7  14   1   13.17    1.69
  -7  14  -1   13.35    1.54
  -7  14  -1    8.33    1.66
  -7  14  -1   12.77    1.63
   7  14   2   14.57    1.78
   7  14   2   15.55    1.75
  -7  14  -2   12.51    1.57
   7  14   2   12.26    1.98
  -7  14  -2   12.22    1.52
  -7  14  -2   10.89    2.10
   7  14   2   10.99    2.60
   7  14   3    7.67    1.64
   7  14   3    6.93    2.65
  -7  14  -3    7.67    2.00
  -7  14  -3    9.97    1.38
   7  14   3    6.46    1.52
  -7  14  -3    7.11    1.40
   7  14   3    8.25    1.87
  -7  14  -4   23.17    1.91
  -7  14  -4   25.60    2.02
   7  14   4   24.42    2.11
  -7  14  -5    5.97    1.31
   7  14   5    4.12    1.31
   7  14   6    5.09    1.11
  -7 -14   6    4.27    1.83
  -7  14  -6    5.16    1.26
  -7  14  -6    4.35    1.12
   7  14   6    4.44    1.18
  -7  14  -7    5.11    1.00
   7  14   7    5.89    0.95
   7 -15   7    3.51    0.86
   7 -15   6    3.87    1.53
   7  15  -6    2.01    1.00
   7  15  -5    3.29    1.20
  -7  15   4    1.64    1.14
   7  15  -4    1.44    1.29
  -7  15   4    2.99    1.21
  -7  15   3    1.80    1.24
   7  15  -3    3.42    1.93
  -7  15   3   -1.28    2.41
  -7  15   3    0.59    1.28
  -7  15   3    2.00    1.84
   7  15  -3    1.99    1.36
  -7  15   3    0.92    1.83
  -7  15   2   18.18    2.10
   7  15  -2   16.78    2.39
  -7  15   2   16.34    2.77
  -7  15   2   15.96    1.75
   7  15  -2   18.48    1.75
  -7  15   2   18.49    2.10
  -7  15   2   16.81    1.65
  -7  15   1   23.98    3.00
   7  15  -1   30.63    2.89
  -7  15   1   25.62    1.92
  -7  15   1   24.81    2.34
  -7  15   1   30.81    2.38
   7  15   0    2.25    2.18
  -7  15   0    5.13    2.15
  -7  15   0    2.75    1.45
  -7  15   0    1.19    1.57
   7  15   0    2.26    1.28
  -7  15  -1   26.06    2.72
   7  15   1   24.65    3.03
  -7  15  -1   26.07    2.15
   7  15   1   26.77    2.34
  -7  15  -1   28.10    2.23
   7  15   1   27.55    2.15
   7  15   2   16.64    1.91
  -7  15  -2   16.67    2.33
   7  15   2   18.17    2.87
  -7  15  -2   20.37    1.77
   7  15   2   18.36    1.93
  -7  15  -2   19.76    1.74
   7  15   2   18.19    2.15
   7  15   3    3.94    1.53
  -7  15  -3    1.06    1.75
   7  15   3    0.81    2.52
   7  15   3    2.83    1.52
  -7  15  -3    1.94    1.19
  -7  15  -3    2.35    1.32
   7  15   3    1.68    1.75
  -7  15  -4    2.56    1.24
  -7  15  -5    2.84    1.17
  -7  15  -5    4.32    1.34
  -7  15  -6    4.35    1.14
   7  15   6    5.08    1.13
   7  15   6    3.02    0.95
  -7 -15   6    3.55    1.62
  -7  15  -6    3.32    0.96
  -7  15  -7    1.90    0.81
   7 -16   6    5.15    1.30
   7 -16   5    0.85    1.72
   7  16  -5    4.01    1.14
  -7  16   4    1.60    1.07
  -7  16   4    1.94    1.10
   7  16  -4    0.59    1.20
  -7  16   3    8.51    1.42
  -7  16   3    5.67    1.81
  -7  16   3    7.03    1.30
   7  16  -3    8.40    1.47
  -7  16   3    7.40    1.85
  -7  16   2    5.52    1.47
  -7  16   2    7.56    1.87
  -7  16   2    5.96    1.31
  -7  16   2    6.12    1.70
   7  16  -2    6.85    1.52
   7  16  -1    5.45    2.13
  -7  16   1    2.84    2.31
  -7  16   1    7.29    1.75
  -7  16   1    5.06    1.17
  -7  16   1    6.74    1.68
   7  16   0   21.44    2.73
  -7  16   0   15.32    2.52
  -7  16   0   18.80    1.91
  -7  16   0   18.19    1.92
  -7  16  -1    1.41    1.92
   7  16   1    4.41    2.38
   7  16   1    6.75    1.78
  -7  16  -1    4.04    1.57
  -7  16  -1    5.04    1.45
   7  16   2    5.93    1.78
  -7  16  -2    3.15    1.56
  -7  16  -2    2.51    1.26
  -7  16  -3    7.27    1.37
   7  16   3    9.00    1.85
  -7  16  -3    7.26    1.26
   7  16   3    8.37    1.57
  -7  16  -4    2.39    1.21
   7  16   4    1.28    1.23
  -7  16  -5    2.93    1.06
  -7 -16   5   -0.03    1.79
   7  16   6    3.36    0.81
  -7  16  -6    4.09    1.01
  -7  16  -7    0.54    0.55
   7 -17   6    3.65    0.98
   7 -17   5    0.55    1.45
   7  17  -5    3.78    1.01
   7  17  -4    3.04    1.16
  -7  17   4    1.18    0.98
   7  17  -3    8.67    1.38
  -7  17   3    7.33    1.30
  -7  17   3    5.71    1.17
  -7  17   2    5.56    1.69
  -7  17   2    7.20    1.42
  -7  17   2    4.18    1.71
  -7  17   2    5.88    1.19
  -7  17   1   15.35    1.89
  -7  17   1   16.08    1.90
  -7  17   1   15.03    1.75
  -7  17   0   73.04    4.09
  -7  17   0   69.88    4.06
  -7  17  -1   16.96    1.86
   7  17   1   18.26    2.03
  -7  17  -1   15.87    1.73
   7  17   1   13.96    1.57
   7  17   2    5.40    1.35
   7  17   2    7.10    1.79
  -7  17  -2    5.88    1.32
  -7  17  -2    6.87    1.52
   7  17   3    4.10    1.29
  -7  17  -3    6.81    1.18
  -7  17  -3    5.60    1.46
   7  17   4    1.86    1.12
  -7  17  -4    2.72    1.12
  -7 -17   5    1.17    1.60
  -7  17  -5    2.17    0.95
   7  17   5    1.62    0.93
   7  17   6    1.53    0.62
   7 -18   5    3.35    1.24
  -7  18   3    3.58    1.10
  -7  18   2    4.38    1.26
  -7  18   2    4.08    1.54
  -7  18   2    5.00    1.58
  -7  18   1    3.33    1.38
  -7  18   1    6.18    1.66
  -7  18   1    4.64    1.60
  -7  18   0    7.40    1.43
   7  18   0    7.30    1.66
  -7  18   0    7.92    1.60
  -7  18   0    8.14    1.63
  -7  18  -1    2.98    1.27
   7  18   1    3.34    1.12
   7  18   1    3.67    1.64
  -7  18  -1    4.91    1.49
  -7  18  -2    4.13    1.19
   7  18   2    4.09    1.19
   7  18   2    1.59    1.59
  -7  18  -2    4.37    1.45
  -7  18  -3    3.90    1.02
   7  18   3    3.77    1.14
  -7  18  -3    3.46    1.29
   7  18   4    0.44    0.93
  -7  18  -4   -0.07    1.16
   7  18   5    4.40    0.80
  -7  19   3    0.70    0.92
  -7  19   2    3.67    1.13
  -7  19   2    4.99    1.43
   7  19  -1   10.22    1.16
  -7  19   1    8.99    1.36
  -7  19   1   11.52    1.59
  -7  19   1    8.83    1.56
  -7  19   0    0.92    1.17
  -7  19   0    1.14    1.37
   7  19   0    1.05    1.45
  -7  19   0   -0.26    1.41
  -7  19  -1   13.39    1.56
  -7  19  -1   14.25    1.42
   7  19   1    8.81    1.09
   7  19   1   10.04    1.64
  -7  19  -1    9.07    1.50
   7  19   2    4.02    0.99
  -7  19  -2    6.16    1.11
   7  19   2    3.50    1.46
   7  19   3    1.01    0.89
  -7  19  -3    2.53    1.16
   7  19   4    1.57    0.77
  -7  19  -4    2.57    1.00
   7  19   5    4.36    0.59
  -7  19  -5    3.74    0.73
   7 -20   4    2.50    0.91
  -7  20   3    0.88    0.73
  -7  20   2    1.13    0.94
   7  20  -2    3.43    1.10
  -7  20   1    6.30    1.11
   7  20  -1    5.01    0.85
  -7  20   1    6.27    1.31
   7  20  -1    7.10    1.30
   7  20   0    1.78    0.90
  -7  20   0    3.09    1.05
   7  20   0    4.05    1.28
  -7  20   0    2.98    1.23
  -7  20   0    2.73    1.23
  -7  20  -1    6.10    1.08
   7  20   1    4.89    1.33
  -7  20  -1    5.98    1.27
  -7  20  -1    6.34    1.27
   7  20   2    1.83    0.72
  -7  20  -2    1.68    0.83
  -7  20  -2    2.12    1.10
  -7  20  -2    3.31    1.08
  -7  20  -3    1.39    0.89
   7  20   3    0.66    0.65
   7  20   4    3.02    0.56
  -7  20  -4    3.72    0.75
   7  20   4    1.50    0.58
  -7  21   2   -0.43    0.72
  -7  21   1    2.85    0.84
  -7  21   0    1.32    0.86
   7  21   0    1.18    0.66
  -7  21  -1    3.98    0.83
   7  21   1    3.98    0.80
   7  21   2   -0.03    0.66
   7  21   3    2.44    0.58
  -7  22   1    1.10    0.54
  -7  22   0    5.34    0.67
  -8   0   0  889.46   42.10
  -8   0   1  393.34   17.20
   8   0   1  350.50   16.96
  -8   0   1  352.37   16.99
   8   0   2  129.67    7.01
  -8   0   2  142.38    7.05
   8   0   3  735.55   34.47
  -8   0   3  708.59   34.47
   8   0   4   45.34    3.65
  -8   0   4   46.69    3.19
   8   0   4   50.46    3.41
  -8   0   4   44.98    3.32
  -8   0   5   40.79    2.66
  -8   0   5   40.46    2.59
   8   0   5   47.48    3.46
  -8   0   5   47.80    3.43
   8   0   5   41.55    3.81
   8   0   6    5.06    1.57
  -8   0   6    3.91    1.49
   8   0   6    7.37    2.44
  -8   0   6    2.25    2.25
  -8   0   6    3.40    1.53
  -8   0   6    4.73    1.49
   8   0   6    2.20    2.86
  -8   0   7   50.06    3.05
   8   0   7   46.20    3.73
  -8   0   7   42.91    3.65
   8   0   7   49.03    3.02
  -8   0   7   45.92    2.98
  -8   0   7   45.25    2.98
  -8   0   7   49.03    2.91
   8   0   7   54.55    4.37
  -8   0   8   16.54    1.54
  -8   0   8   16.84    1.62
   8   0   8   13.35    1.64
  -8   0   8   16.24    1.65
  -8   0   9   26.20    1.62
  -8   1   9    2.87    0.91
   8  -1   9    1.58    0.97
  -8   1   8   15.68    1.66
   8  -1   8   15.57    1.73
  -8   1   7    5.09    1.66
  -8   1   7    2.60    1.47
   8  -1   7    2.30    1.60
  -8   1   7    7.79    2.17
   8  -1   7    3.55    2.42
  -8   1   7    6.19    1.43
   8  -1   7    2.15    3.01
  -8   1   6    1.74    1.42
   8  -1   6    2.20    1.57
  -8   1   6    1.70    2.15
   8  -1   6    2.91    2.49
  -8   1   6    3.22    1.50
  -8   1   6    1.88    1.39
   8  -1   6    2.03    2.97
  -8   1   5   11.23    1.54
   8  -1   5   13.15    2.53
  -8   1   5   12.29    2.35
  -8   1   5   13.54    1.57
  -8   1   5   15.27    1.52
   8  -1   5   13.08    2.93
  -8   1   4   20.36    2.45
   8  -1   4   22.21    2.62
   8  -1   4   20.34    2.95
  -8   1   3  142.79    7.28
   8  -1   3  139.05    7.32
  -8   1   2   61.13    3.42
   8  -1   2   64.57    3.56
  -8   1   2   56.97    3.50
  -8   1   1  366.89   16.95
   8  -1   1  349.95   16.99
  -8  -1  -1  350.01   16.94
  -8   1   1  366.99   17.15
  -8  -1   0  105.86    5.28
  -8   1   0  104.60    5.29
  -8  -1   1  347.42   16.73
   8   1   1  356.98   16.65
  -8  -1   1  340.49   16.87
   8   1   2   57.82    3.28
  -8  -1   2   57.21    3.41
  -8  -1   2   56.59    3.39
   8   1   3  126.30    7.01
  -8  -1   3  140.04    7.13
   8   1   3  145.69    7.25
   8   1   4   19.68    2.43
  -8  -1   4   20.10    2.46
   8   1   4   16.07    2.65
  -8  -1   4   18.53    2.08
  -8  -1   5   14.72    1.64
  -8  -1   5   12.82    1.45
  -8  -1   5   15.78    2.47
   8   1   5    8.50    2.29
   8   1   5    9.75    2.76
  -8  -1   5   11.49    1.99
  -8  -1   5   10.58    1.57
   8   1   6    0.29    1.46
  -8  -1   6    2.76    1.52
   8   1   6   -0.07    2.16
  -8  -1   6    0.92    2.31
  -8  -1   6    1.59    1.46
  -8  -1   6    1.93    1.42
   8   1   6    1.94    2.67
  -8  -1   7    6.17    1.69
   8   1   7    0.27    1.53
  -8  -1   7    4.43    1.62
   8   1   7    7.22    2.16
  -8  -1   7    5.29    2.35
  -8  -1   7    4.41    1.53
  -8  -1   7    4.46    1.38
   8   1   7    6.43    2.81
  -8  -1   8   21.86    1.64
  -8  -1   8   20.25    1.75
   8   1   8   18.29    1.75
  -8  -1   8   19.08    1.82
  -8  -1   9    3.69    0.86
  -8  -1   9    1.72    1.01
  -8   2   9    1.99    0.90
   8  -2   9    1.86    0.95
  -8   2   8   21.55    1.75
  -8   2   8   17.00    1.66
   8  -2   8   19.89    1.86
  -8   2   7    3.20    1.94
   8  -2   7    1.86    2.48
   8  -2   7    4.16    3.03
  -8   2   7   -0.57    1.42
   8  -2   7    3.07    1.68
  -8   2   7    1.18    1.55
  -8   2   7    2.53    1.37
   8  -2   6    2.34    2.54
  -8   2   6    5.74    2.04
   8  -2   6    5.01    1.63
  -8   2   6    1.97    1.39
   8  -2   6   -2.64    3.09
  -8   2   6    0.56    1.60
  -8   2   6    1.28    1.36
  -8   2   5   37.90    2.50
   8  -2   5   41.64    2.66
  -8   2   5   42.09    2.58
  -8   2   5   41.34    2.66
  -8   2   5   41.16    2.62
   8  -2   5   49.39    3.95
  -8   2   5   43.25    3.21
   8  -2   5   47.53    3.52
  -8   2   4    5.47    1.89
   8  -2   4   10.32    2.28
  -8   2   3   28.53    2.34
   8  -2   3   33.04    2.71
  -8   2   2  126.15    6.20
   8  -2   2  120.41    6.33
  -8   2   1  356.65   17.02
  -8   2   1  356.40   16.93
  -8   2   0  112.28    5.90
   8   2   0  131.79    5.88
  -8   2  -1  356.20   16.85
   8   2   1  345.11   16.88
   8   2   1  360.38   16.83
  -8  -2   2  128.78    6.68
   8   2   2  137.05    6.72
   8   2   2  130.58    6.51
  -8  -2   2  127.94    6.67
  -8  -2   3   33.40    2.61
   8   2   3   31.92    2.72
   8   2   3   29.80    2.40
  -8  -2   3   30.92    2.67
   8   2   4    7.43    2.36
  -8  -2   4    5.98    1.73
  -8  -2   4    7.68    2.19
  -8  -2   4    7.60    2.15
   8   2   4    6.72    1.84
  -8  -2   5   40.61    2.48
  -8  -2   5   42.26    2.65
   8   2   5   40.03    3.56
  -8  -2   5   39.76    3.05
   8   2   5   38.82    2.50
  -8  -2   5   39.35    2.58
   8   2   5   41.10    3.13
  -8  -2   5   44.05    3.42
  -8  -2   6    2.76    1.54
   8   2   6    1.24    1.44
   8   2   6    2.53    2.64
  -8  -2   6    1.51    1.51
  -8  -2   6    1.44    1.44
  -8  -2   6    6.85    2.47
   8   2   6    3.99    2.07
   8   2   7    1.04    1.44
  -8  -2   7    2.02    1.56
   8   2   7    3.44    2.63
  -8  -2   7    1.38    1.43
  -8  -2   7    3.14    1.34
   8   2   7    4.33    2.11
  -8  -2   7    2.37    2.44
   8   2   8   18.35    1.71
  -8  -2   8   21.67    1.88
  -8  -2   8   20.54    1.60
  -8  -2   8   20.00    1.73
  -8  -2   9    2.59    1.03
  -8   3   9    1.43    0.88
   8  -3   9    1.48    0.95
  -8   3   8    4.85    1.30
   8  -3   8    1.69    1.46
  -8   3   7   13.87    2.27
   8  -3   7   13.81    2.90
  -8   3   7   15.85    1.70
   8  -3   7   17.48    2.01
   8  -3   7   16.99    3.51
  -8   3   7   20.89    1.76
  -8   3   7   16.08    1.85
  -8   3   6    4.17    1.40
   8  -3   6    6.09    1.76
  -8   3   6    2.08    1.61
  -8   3   6    5.98    1.49
  -8   3   6    4.45    1.39
   8  -3   6    9.36    2.73
  -8   3   6    7.97    2.07
  -8   3   5   21.36    1.92
  -8   3   5   22.42    1.82
  -8   3   5   17.75    2.31
   8  -3   5   25.53    2.87
  -8   3   5   19.77    1.74
   8  -3   5   22.05    2.03
  -8   3   4   21.33    2.16
   8  -3   4   25.01    2.74
  -8   3   3   12.99    1.71
   8  -3   3    8.99    2.22
  -8   3   2   21.86    1.73
   8   3  -1   34.86    1.99
  -8   3   1   30.80    1.88
  -8   3   1   32.89    2.16
  -8   3   0    8.42    1.04
   8   3   0    7.56    0.88
   8   3   1   29.80    1.89
   8   3   1   30.19    1.74
   8   3   2   16.75    1.90
  -8  -3   2   20.43    1.87
   8   3   2   19.06    1.62
   8   3   3    8.88    2.01
  -8  -3   3    8.32    2.06
   8   3   3   13.45    1.69
  -8  -3   3    7.30    2.12
   8   3   4   21.78    2.58
  -8  -3   4   20.64    2.53
  -8  -3   4   16.61    2.15
   8   3   4   19.90    2.10
  -8  -3   4   17.83    2.57
  -8  -3   5   19.66    1.65
  -8  -3   5   18.54    1.89
  -8  -3   5   18.29    2.25
   8   3   5   18.57    2.76
  -8  -3   5   22.29    2.78
   8   3   5   20.55    1.73
  -8  -3   5   19.12    1.93
   8   3   5   24.32    2.40
  -8  -3   5   24.22    2.84
   8   3   6    4.72    1.44
  -8  -3   6    6.29    1.66
  -8  -3   6    4.70    1.89
   8   3   6    5.65    2.57
  -8  -3   6    5.45    1.56
   8   3   6    4.74    2.04
  -8  -3   6    5.93    2.55
  -8  -3   6    4.10    1.47
  -8  -3   7   17.25    1.76
   8   3   7   14.62    2.35
  -8  -3   7   16.49    2.88
  -8  -3   7   15.71    1.63
   8   3   7   14.78    1.69
  -8  -3   7   16.19    1.93
  -8  -3   8    3.89    1.08
  -8  -3   8    2.73    1.47
  -8  -3   8    3.15    1.30
  -8  -3   9    2.54    1.05
   8  -4   9    0.62    0.92
  -8   4   9    1.78    0.84
   8  -4   8    3.53    1.48
  -8   4   8    5.14    1.32
  -8   4   7   11.84    1.56
   8  -4   7   15.83    1.97
  -8   4   7   14.45    1.68
   8  -4   7   17.81    2.95
  -8   4   7   13.77    2.15
  -8   4   7   14.01    1.63
  -8   4   6   57.58    3.40
   8  -4   6   60.96    3.71
  -8   4   6   61.56    3.54
  -8   4   6   60.42    3.51
  -8   4   6   64.51    4.09
   8  -4   6   73.41    4.76
  -8   4   6   61.50    3.50
  -8   4   5    4.51    1.40
   8  -4   5    9.60    2.55
  -8   4   5    6.64    1.79
  -8   4   5    3.49    1.41
  -8   4   5    4.50    1.23
   8  -4   5    4.81    1.66
  -8   4   4  133.74    6.85
   8  -4   4  124.88    7.22
  -8   4   3  126.39    6.51
  -8   4   2  219.14   10.82
  -8   4   2  218.42   10.64
  -8   4   1   34.41    2.16
  -8   4   1   38.86    2.44
  -8   4   0    5.94    1.06
   8   4   0    7.01    0.99
  -8   4  -1   39.39    2.30
   8   4   1   40.53    2.23
   8   4   1   41.47    2.41
   8   4   2  222.09   11.13
  -8  -4   2  241.36   11.17
   8   4   2  225.79   11.25
   8   4   2  229.94   11.15
   8   4   3  123.77    6.73
  -8  -4   3  139.80    6.87
   8   4   3  130.52    6.69
  -8  -4   4  129.94    7.10
  -8  -4   4  143.45    7.24
   8   4   4  133.55    7.13
   8   4   4  131.43    7.01
  -8  -4   4  131.20    7.35
   8   4   5    3.48    1.25
  -8  -4   5    3.02    1.58
  -8  -4   5    4.10    1.86
   8   4   5    4.53    2.19
  -8  -4   5    6.98    2.44
  -8  -4   5    4.15    1.12
  -8  -4   5    3.59    1.45
   8   4   5    3.72    1.76
  -8  -4   5    5.02    2.41
   8   4   6   62.83    3.55
  -8  -4   6   61.51    3.76
  -8  -4   6   56.03    4.14
  -8  -4   6   64.05    3.66
  -8  -4   6   64.84    3.63
   8   4   6   71.64    4.24
  -8  -4   6   70.06    4.76
  -8  -4   7   15.79    1.66
  -8  -4   7   15.25    1.93
  -8  -4   7   14.11    2.85
   8   4   7   13.11    2.20
  -8  -4   7   11.97    1.52
  -8  -4   8    5.24    1.28
  -8  -4   8    3.19    1.49
  -8  -4   9    1.94    1.00
  -8   5   9    0.56    0.80
   8  -5   9    1.48    0.89
  -8   5   8    5.47    1.29
   8  -5   8    7.20    1.52
   8  -5   7    1.32    1.71
  -8   5   7    0.89    1.30
  -8   5   7   -0.42    1.38
  -8   5   7   -0.51    1.72
   8  -5   7    0.98    2.54
  -8   5   6   69.16    3.95
   8  -5   6   71.93    4.29
  -8   5   6   79.02    4.08
  -8   5   6   78.01    4.08
   8  -5   6   76.94    5.25
  -8   5   6   65.57    4.50
  -8   5   5    3.30    1.19
   8  -5   5    2.56    1.76
  -8   5   5    4.14    1.27
  -8   5   5    4.60    1.72
   8  -5   5    4.17    2.52
  -8   5   5    4.50    1.01
  -8   5   5    2.46    1.32
  -8   5   4   14.94    1.89
   8  -5   4   14.64    2.64
  -8   5   3   33.28    2.36
  -8   5   2   21.32    1.73
  -8   5   2   21.84    2.22
   8   5  -2   21.83    1.91
  -8   5   1   30.12    2.21
  -8   5   1   29.15    1.85
   8   5  -1   29.67    2.00
  -8   5   0   16.57    1.44
   8   5   0   13.31    1.35
  -8   5  -1   29.54    1.96
   8   5   1   28.18    2.03
  -8  -5   2   16.19    1.74
   8   5   2   20.84    1.93
   8   5   2   20.85    1.69
  -8   5  -2   19.78    1.73
   8   5   3   29.87    2.22
  -8  -5   3   29.96    2.55
   8   5   4   15.53    1.91
  -8  -5   4   11.42    2.53
  -8  -5   4   11.08    1.95
   8   5   4   16.24    2.07
  -8  -5   4   13.26    2.30
   8   5   5    4.50    1.30
   8   5   5    3.64    1.72
  -8  -5   5    5.07    2.50
  -8  -5   5    3.64    1.72
   8   5   5    3.14    1.22
   8   5   5    3.67    1.05
  -8  -5   5    3.86    1.42
  -8  -5   5    4.14    1.81
  -8  -5   5    5.09    2.30
  -8  -5   6   63.79    3.75
  -8  -5   6   52.39    4.03
  -8  -5   6   68.62    3.56
   8   5   6   59.51    4.00
  -8  -5   6   59.40    4.65
  -8  -5   6   57.71    3.50
  -8  -5   7    3.40    1.75
  -8  -5   7    0.02    1.15
   8   5   7    0.83    1.74
  -8  -5   7    2.07    2.53
  -8  -5   8    6.16    1.21
  -8  -5   8    5.09    1.52
  -8   5  -9    1.33    0.65
  -8   6   9    1.82    0.75
   8  -6   9    1.75    0.84
  -8   6   8    5.66    1.21
   8  -6   8    2.67    1.41
  -8   6   7    1.82    1.38
   8  -6   7    4.11    1.76
   8  -6   6   23.87    4.12
  -8   6   6   20.82    1.89
  -8   6   6   19.16    1.78
   8  -6   6   23.61    2.37
  -8   6   6   17.55    2.31
   8  -6   6   23.90    3.35
  -8   6   5   58.23    3.32
   8  -6   5   55.60    3.67
  -8   6   5   60.03    3.38
   8  -6   5   64.48    4.58
  -8   6   5   64.22    3.86
   8  -6   5   61.22    5.12
  -8   6   5   65.63    3.41
  -8   6   4    6.42    1.61
   8  -6   4    4.31    2.43
  -8   6   4    5.97    1.29
  -8   6   3   43.11    3.22
  -8   6   3   38.42    2.58
  -8   6   2   17.38    1.59
   8   6  -2   21.87    1.91
  -8   6   2   19.17    2.15
  -8   6   2   19.17    1.62
   8   6  -1   14.58    1.55
  -8   6   1   15.93    1.79
   8   6   0   67.56    3.60
  -8   6   0   64.70    3.59
  -8   6  -1   17.75    1.58
   8   6   1   15.42    1.66
  -8   6  -2   18.60    1.76
   8   6   2   19.32    1.52
  -8  -6   2   20.99    1.75
   8   6   2   23.05    2.06
   8   6   2   20.99    1.75
  -8  -6   3   40.35    2.87
  -8   6  -3   37.83    2.71
   8   6   3   41.90    2.67
   8   6   3   39.25    3.00
  -8  -6   4    6.73    1.83
  -8  -6   4    6.31    2.13
  -8  -6   4    3.92    2.37
   8   6   4    2.93    1.56
   8   6   5   63.88    3.94
  -8  -6   5   68.63    4.68
  -8  -6   5   53.89    3.69
   8   6   5   62.73    3.31
  -8  -6   5   59.73    3.48
  -8  -6   5   64.22    4.14
  -8  -6   5   70.27    4.31
   8   6   5   61.81    3.49
   8   6   6   19.02    1.65
  -8  -6   6   15.19    1.70
  -8  -6   6   19.64    2.21
   8   6   6   18.33    1.58
  -8  -6   6   19.10    1.77
   8   6   6   17.68    2.26
  -8  -6   6   23.08    3.26
  -8  -6   6   13.46    2.38
  -8  -6   7    4.42    1.79
  -8  -6   8    5.88    1.51
  -8   6  -9    2.13    0.63
   8  -7   9    0.26    0.72
  -8   7   9    1.11    0.68
   8  -7   8    3.65    1.41
  -8   7   8    4.24    1.13
   8  -7   7    9.72    1.84
  -8   7   7    9.69    1.50
   8  -7   6   25.52    4.21
   8  -7   6   20.11    2.39
  -8   7   6   23.45    1.91
  -8   7   6   21.57    1.85
  -8   7   6   21.33    2.32
   8  -7   6   31.73    3.56
   8   7  -6   22.69    2.80
   8  -7   5   37.42    2.88
  -8   7   5   38.47    2.45
  -8   7   5   38.06    2.38
   8  -7   5   43.87    3.92
  -8   7   5   39.32    2.93
  -8   7   4    3.67    1.22
  -8   7   4    4.64    1.08
   8   7  -4    4.78    1.85
  -8   7   4    5.15    1.14
  -8   7   4    3.61    1.20
  -8   7   4    4.40    1.50
   8   7  -3   11.36    1.81
  -8   7   3    8.32    2.16
  -8   7   3    9.79    1.51
  -8   7   3    8.43    1.55
  -8   7   2   29.06    2.52
  -8   7   2   26.84    1.99
   8   7  -2   23.97    2.21
  -8   7   2   28.39    1.93
  -8   7   1   84.59    4.48
   8   7  -1   76.20    4.26
   8   7   0   12.53    1.53
  -8   7   0   16.66    1.68
   8   7   1   74.83    4.33
  -8   7  -1   83.93    4.27
   8   7   2   26.72    2.36
   8   7   2   22.87    1.91
  -8   7  -2   28.81    2.04
   8   7   2   25.79    1.82
   8   7   3    9.59    2.06
  -8   7  -3    8.37    1.60
   8   7   3    7.08    1.48
   8   7   3    8.49    1.42
  -8   7  -4    5.21    1.71
   8   7   4    4.60    1.37
   8   7   4    2.86    1.03
   8   7   4    3.07    1.54
  -8  -7   4    3.06    1.78
   8   7   5   36.60    2.46
  -8   7  -5   37.64    3.05
  -8  -7   5   33.05    2.74
   8   7   5   35.99    2.20
  -8  -7   5   35.89    2.36
  -8  -7   5   35.55    3.12
   8   7   5   33.56    2.75
  -8  -7   5   40.41    3.84
  -8   7  -6   20.61    2.61
  -8  -7   6   22.88    2.33
   8   7   6   22.11    1.70
  -8  -7   6   19.47    1.75
  -8  -7   6   15.79    2.53
  -8  -7   6   18.82    3.28
   8   7   6   20.20    2.25
  -8  -7   7   11.08    1.92
  -8  -7   8    4.39    1.48
  -8   7  -9    1.68    0.59
  -8   8   9    0.79    0.60
  -8   8   8   -0.46    0.99
   8  -8   8    2.51    1.31
  -8   8   7    1.07    1.29
   8  -8   7    3.23    1.72
   8  -8   6    5.71    2.93
  -8   8   6    4.89    1.76
   8  -8   6    9.31    2.11
   8   8  -6    7.63    2.31
   8  -8   6   10.69    3.69
  -8   8   5   22.21    2.24
  -8   8   5   20.83    1.73
  -8   8   5   21.62    1.72
   8  -8   5   15.57    2.33
   8   8  -5   23.52    2.65
   8  -8   5   23.19    3.42
  -8   8   4   19.69    1.63
  -8   8   4   20.29    1.64
   8   8  -4   23.71    2.36
  -8   8   4   19.91    1.56
  -8   8   4   19.36    2.03
   8   8  -3   39.58    2.89
  -8   8   3   41.41    2.65
  -8   8   3   36.96    2.63
  -8   8   3   40.90    3.31
   8   8  -2   27.24    2.19
  -8   8   2   24.97    1.92
  -8   8   2   23.41    1.94
  -8   8   2   26.25    2.55
   8   8  -1   42.87    2.66
   8   8  -1   39.51    2.25
  -8   8   1   39.03    2.84
   8   8   0    7.82    1.02
  -8   8   0    6.29    1.04
   8   8   0    8.61    1.47
  -8   8   0    8.30    1.55
  -8   8  -1   34.69    2.45
  -8   8  -1   35.18    2.06
   8   8   2   32.53    2.55
  -8   8  -2   26.86    2.13
   8   8   2   26.31    1.92
   8   8   3   39.56    3.07
  -8   8  -3   36.42    2.67
   8   8   3   36.54    2.44
   8   8   3   38.33    2.62
   8   8   4   22.80    2.14
  -8  -8   4   21.90    2.43
   8   8   4   18.67    1.57
  -8   8  -4   21.36    2.22
   8   8   4   20.59    1.84
  -8   8  -5   18.41    2.47
   8   8   5   22.72    1.93
  -8  -8   5   19.47    2.57
  -8  -8   5   18.23    2.33
  -8  -8   5   25.23    3.46
   8   8   5   20.67    1.66
   8   8   5   23.73    2.29
  -8  -8   6    9.86    3.11
   8   8   6    5.83    1.82
  -8   8  -6    6.15    2.09
  -8  -8   6    5.62    2.17
  -8  -8   6    7.58    2.15
  -8  -8   7    4.72    1.83
  -8  -8   8    3.78    1.41
  -8   9   9    2.32    0.50
  -8   9   8    0.65    0.90
   8  -9   8    2.07    1.20
  -8   9   7    3.70    1.23
   8  -9   7    4.97    1.78
   8  -9   6    4.84    2.04
   8   9  -6    8.22    2.23
   8  -9   6    8.30    3.07
  -8   9   6    5.22    1.66
   8  -9   6    9.52    3.82
  -8   9   6    7.29    1.26
   8   9  -5    6.54    2.10
  -8   9   5    6.90    1.35
  -8   9   5    6.86    1.40
   8  -9   5    5.71    3.13
  -8   9   5    7.21    1.78
  -8   9   4   17.45    1.59
  -8   9   4   17.19    1.53
   8   9  -4   14.70    2.24
  -8   9   4   16.37    1.91
  -8   9   3   10.57    1.70
  -8   9   3    8.95    1.53
  -8   9   3   10.14    2.39
   8   9  -3    6.80    1.79
  -8   9   3    9.33    1.19
  -8   9   2   33.53    2.31
   8   9  -2   35.08    2.60
  -8   9   2   36.65    2.96
   8   9  -1   15.99    1.82
  -8   9   1   19.50    2.16
   8   9  -1   15.86    1.36
   8   9   0   47.43    2.75
   8   9   0   49.90    3.15
  -8   9   0   53.90    2.78
  -8   9   0   55.61    3.23
  -8   9  -1   19.69    1.78
  -8   9  -1   16.92    1.34
   8   9   2   31.88    2.19
  -8   9  -2   34.78    2.39
   8   9   2   30.73    2.71
   8   9   3    7.86    1.54
   8   9   3    8.64    1.47
   8   9   3    7.41    2.13
  -8   9  -3    7.71    1.69
  -8   9  -4   16.36    2.12
   8   9   4   15.69    1.74
  -8  -9   4   13.69    2.33
   8   9   4   13.30    1.92
   8   9   5    7.95    1.57
  -8  -9   5    6.99    3.11
   8   9   5    7.29    1.73
  -8   9  -5    6.92    2.04
  -8  -9   5    4.26    2.14
  -8  -9   6    5.66    3.09
   8   9   6    4.22    1.72
  -8   9  -6    4.75    2.04
  -8  -9   6    5.03    2.15
  -8  -9   6    6.67    2.09
  -8  -9   7    7.29    1.91
   8   9   8   -0.39    0.99
  -8   9  -8    1.09    0.97
  -8  10   8    3.41    0.88
   8 -10   8    3.20    1.10
   8 -10   7    7.31    1.72
   8 -10   6   26.14    2.53
  -8  10   6   24.85    1.91
  -8  10   5  123.17    6.30
  -8  10   5  110.97    6.54
   8  10  -5  133.64    6.94
  -8  10   5  123.37    6.18
   8 -10   5  122.15    7.56
  -8  10   4    9.72    1.38
  -8  10   4    7.98    1.30
  -8  10   4    8.80    1.63
  -8  10   4    7.06    1.14
   8  10  -4   12.34    2.10
  -8  10   3    8.32    1.88
  -8  10   3    5.40    1.67
  -8  10   3    6.88    1.25
  -8  10   3    8.20    1.15
  -8  10   3    9.88    2.47
   8  10  -3    8.43    1.89
  -8  10   2   29.63    2.84
  -8  10   2   26.16    1.90
   8  10  -2   27.01    2.38
  -8  10   2   28.32    2.17
  -8  10   1   20.66    2.30
   8  10  -1   22.40    2.09
   8  10  -1   21.35    1.58
   8  10   0    2.28    1.55
  -8  10   0    2.78    1.60
   8  10   0    1.79    1.03
  -8  10   0    1.53    1.01
   8  10   1   22.21    2.24
  -8  10  -1   18.67    1.43
  -8  10  -1   17.12    1.85
   8  10   2   25.68    1.98
  -8  10  -2   25.69    1.80
   8  10   2   25.76    1.98
  -8  10  -2   24.07    2.15
   8  10   2   28.90    2.70
  -8  10  -2   25.76    1.83
   8  10   2   27.36    1.80
  -8  10  -2   24.07    1.70
   8  10   3    9.46    2.28
  -8  10  -3    5.80    1.71
  -8  10  -3    7.76    1.24
   8  10   3    7.80    1.57
  -8  10  -3    5.57    1.14
   8  10   4   10.80    1.79
   8  10   4    9.58    1.65
  -8  10  -4   10.39    2.00
   8  10   5  111.68    6.48
   8  10   5  128.87    6.30
  -8  10  -5  117.91    6.73
  -8 -10   5  109.93    6.95
  -8 -10   6   25.42    2.58
  -8 -10   7    8.78    1.84
   8  10   8    2.97    0.93
  -8  10  -8    2.47    0.92
   8 -11   8    2.47    0.93
  -8  11   8    2.75    0.77
   8 -11   7    7.28    1.66
   8 -11   6   52.00    3.45
  -8  11   6   52.16    2.96
   8 -11   5   90.63    6.01
   8  11  -5   83.35    5.21
  -8  11   5   77.03    4.87
  -8  11   5   89.34    4.50
  -8  11   5   87.63    4.65
  -8  11   4   15.03    1.45
  -8  11   4   13.63    1.42
   8  11  -4   12.73    2.22
  -8  11   3   49.21    2.95
  -8  11   3   52.08    3.28
  -8  11   3   53.22    3.25
   8  11  -3   43.06    3.35
  -8  11   3   48.68    2.73
  -8  11   3   49.33    3.93
  -8  11   2    6.53    1.52
   8  11  -2    3.65    1.22
   8  11  -2    3.76    1.70
  -8  11   2    6.86    2.22
  -8  11   2    5.28    1.24
  -8  11   2    7.19    1.01
   8  11  -1    6.88    1.17
  -8  11   1    5.50    1.17
  -8  11   1    9.41    2.01
   8  11  -1    5.43    1.65
   8  11   0    3.38    1.77
  -8  11   0    4.20    1.67
  -8  11   0    4.50    1.21
   8  11   0    4.48    1.34
   8  11   1    7.00    1.44
  -8  11  -1    6.44    1.13
   8  11   1    5.32    1.93
  -8  11  -1    6.19    1.59
  -8  11  -1    7.32    1.30
  -8  11  -1    7.34    1.22
   8  11   1    7.08    1.32
   8  11   2    6.35    1.46
  -8  11  -2    5.08    1.10
   8  11   2    5.31    1.54
  -8  11  -2    7.08    1.65
   8  11   2    7.31    2.14
  -8  11  -2    6.55    1.26
  -8  11  -2    5.26    1.16
   8  11   2    6.57    1.30
   8  11   3   46.97    2.94
   8  11   3   44.83    3.01
  -8  11  -3   48.28    3.23
   8  11   3   44.43    3.64
  -8  11  -3   45.64    2.73
  -8  11  -3   50.15    2.76
   8  11   3   44.32    2.71
  -8  11  -4   16.35    1.60
  -8  11  -4   15.31    2.16
   8  11   4   10.94    1.77
   8  11   5   81.64    4.43
  -8  11  -5   79.92    4.91
  -8 -11   5   85.81    5.96
  -8 -11   5   72.43    5.12
  -8 -11   6   46.46    3.42
  -8  11  -6   51.85    2.95
   8  11   6   45.04    2.90
   8  11   7    3.26    1.17
  -8  11  -7    3.48    1.17
  -8  11  -8    2.96    0.88
   8 -12   8    6.85    0.84
   8 -12   7    4.46    1.45
   8  12  -7    1.87    1.08
  -8  12   6   12.20    1.34
   8 -12   6   11.72    2.07
   8 -12   5   12.41    3.25
  -8  12   5   16.38    1.66
  -8  12   5   14.97    1.51
   8  12  -4   14.60    2.22
  -8  12   4   13.38    1.51
  -8  12   4   14.60    1.43
  -8  12   3   45.65    2.91
   8  12  -3   47.53    3.45
  -8  12   3   48.17    3.24
  -8  12   3   40.62    2.88
  -8  12   3   48.14    2.66
  -8  12   3   49.35    4.03
   8  12  -3   54.01    2.87
  -8  12   3   46.96    3.39
  -8  12   2   22.96    1.91
  -8  12   2   25.44    2.17
   8  12  -2   24.92    2.42
  -8  12   2   23.82    1.61
  -8  12   2   24.56    2.92
   8  12  -2   26.41    1.86
  -8  12   2   26.28    2.27
  -8  12   1   49.71    3.48
  -8  12   1   42.09    2.86
  -8  12   1   45.20    2.74
   8  12  -1   49.34    2.75
   8  12  -1   50.52    3.29
   8  12   0    2.85    1.80
  -8  12   0    3.76    1.72
  -8  12   0    3.84    1.31
  -8  12   0    5.04    1.06
   8  12   0    6.71    1.38
   8  12   1   51.92    2.82
   8  12   1   48.31    3.48
  -8  12  -1   48.29    2.93
  -8  12  -1   41.77    3.15
  -8  12  -1   43.40    2.70
   8  12   1   50.90    2.94
   8  12   2   25.86    1.89
  -8  12  -2   20.43    2.24
   8  12   2   25.05    2.08
  -8  12  -2   22.66    1.75
   8  12   2   25.74    2.84
  -8  12  -2   24.54    1.92
  -8  12  -2   24.71    1.84
   8  12   2   23.72    2.04
   8  12   3   48.93    2.99
  -8  12  -3   46.11    2.85
  -8  12  -3   42.79    3.29
   8  12   3   51.31    3.07
  -8  12  -3   47.01    2.79
   8  12   3   40.47    3.80
   8  12   3   46.81    2.77
  -8  12  -3   45.23    2.76
  -8  12  -4   13.15    2.11
  -8  12  -4   14.63    1.64
  -8 -12   5   16.65    3.52
  -8  12  -5   16.82    1.77
   8  12   5   16.40    1.83
  -8  12  -6   13.11    1.54
   8  12   6   10.11    1.42
  -8 -12   6   11.42    2.16
  -8  12  -7    2.19    1.10
  -8 -12   7    5.96    1.56
   8  12   7    3.53    1.08
  -8  12  -8    6.06    0.80
  -8  13   7    6.92    0.93
   8 -13   7    8.74    1.30
  -8  13   6    3.44    1.05
   8 -13   6    2.56    1.77
   8  13  -6    2.27    1.21
  -8  13   5    2.76    1.10
   8  13  -5    1.50    1.36
  -8  13   5    1.24    1.23
  -8  13   4    7.39    1.44
   8  13  -4    7.43    1.11
   8  13  -4    8.49    2.08
   8  13  -4    6.34    1.44
  -8  13   4    6.74    1.33
  -8  13   4    8.51    1.21
  -8  13   3   38.10    2.56
  -8  13   3   42.41    3.80
  -8  13   3   39.31    2.57
  -8  13   3   37.95    2.29
  -8  13   3   41.66    3.07
   8  13  -3   39.75    2.54
   8  13  -3   38.50    3.17
  -8  13   3   38.99    2.87
  -8  13   2  140.76    7.95
  -8  13   2  153.53    7.37
   8  13  -2  137.33    7.03
   8  13  -2  130.77    7.53
  -8  13   2  147.60    7.26
  -8  13   2  139.54    7.11
  -8  13   2  136.56    6.88
  -8  13   2  144.88    7.20
  -8  13   1   26.32    2.04
   8  13  -1   16.74    1.76
   8  13  -1   21.40    2.40
  -8  13   1   20.19    2.63
  -8  13   1   21.99    1.74
   8  13   0    6.87    1.41
  -8  13   0    6.78    1.46
  -8  13   0    7.53    1.12
   8  13   0    6.67    2.00
  -8  13   0    8.55    1.99
   8  13   1   19.61    1.87
   8  13   1   18.81    1.91
   8  13   1   20.84    2.60
  -8  13  -1   18.30    2.28
  -8  13  -1   21.13    1.89
  -8  13  -1   21.59    1.70
   8  13   2  144.56    6.99
   8  13   2  134.79    7.78
   8  13   2  134.81    7.14
  -8  13  -2  144.89    7.13
  -8  13  -2  138.89    6.98
   8  13   2  138.38    7.16
  -8  13  -2  134.11    7.46
   8  13   3   39.08    2.54
   8  13   3   36.81    3.60
  -8  13  -3   40.72    2.56
  -8  13  -3   41.03    2.53
  -8  13  -3   44.15    2.62
   8  13   3   35.42    2.74
   8  13   3   40.26    2.89
  -8  13  -3   37.83    3.07
  -8  13  -4    7.09    1.91
  -8  13  -4    9.71    1.50
  -8  13  -4    7.68    1.39
  -8  13  -5    3.16    1.36
  -8  13  -5    1.28    1.21
  -8  13  -6    2.60    1.23
  -8  13  -6    2.84    1.13
   8  13   6    2.37    1.13
  -8 -13   6    1.37    1.86
  -8  13  -7    4.55    1.05
   8  13   7    6.06    1.02
  -8  13  -8    1.43    0.54
   8 -14   7    6.85    1.08
  -8  14   6    6.46    1.02
   8 -14   6    5.31    1.69
   8  14  -6    6.01    1.18
  -8  14   5    3.48    1.04
   8  14  -5    3.33    1.28
  -8  14   4   10.07    1.20
  -8  14   4    9.53    1.34
  -8  14   4    9.96    1.46
   8  14  -4    7.25    1.47
  -8  14   3    8.40    1.13
  -8  14   3    7.09    2.61
   8  14  -3   10.04    2.08
  -8  14   3    6.34    1.41
  -8  14   3    7.36    2.00
  -8  14   3    7.47    1.39
   8  14  -3    6.70    1.42
  -8  14   3    7.39    1.90
  -8  14   2   42.74    3.16
  -8  14   2   41.61    3.76
  -8  14   2   40.89    2.83
  -8  14   2   42.73    2.71
   8  14  -2   47.19    2.76
   8  14  -2   43.28    3.31
  -8  14   2   47.10    3.03
   8  14  -1    9.16    2.17
  -8  14   1    4.83    2.34
  -8  14   1    3.48    1.20
  -8  14   1    6.32    1.76
   8  14  -1    6.08    1.45
   8  14   0    6.59    2.14
  -8  14   0    2.64    2.05
  -8  14   0    3.00    1.52
  -8  14   0    4.33    1.44
   8  14   0    6.22    1.41
  -8  14  -1    4.39    2.04
   8  14   1    8.73    2.33
  -8  14  -1    5.13    1.47
   8  14   1    3.81    1.51
   8  14   2   46.34    2.97
   8  14   2   45.03    3.75
  -8  14  -2   48.03    2.88
   8  14   2   50.19    2.86
  -8  14  -2   40.41    2.72
  -8  14  -2   38.41    3.23
   8  14   2   48.04    3.08
  -8  14  -3    7.73    1.41
   8  14   3    7.38    1.89
   8  14   3    6.28    1.63
   8  14   3    7.70    2.60
  -8  14  -3    7.32    1.88
  -8  14  -3    9.61    1.37
  -8  14  -3    9.71    1.60
   8  14   3   10.47    1.53
  -8  14  -4    9.07    1.39
  -8  14  -4    8.50    1.52
   8  14   4   10.56    1.65
  -8  14  -5    2.42    1.34
  -8  14  -5    3.05    1.19
   8  14   5    2.33    1.22
   8  14   6    5.27    1.11
  -8 -14   6    6.96    1.83
  -8  14  -6    4.30    1.23
  -8  14  -6    4.84    1.07
   8  14   6    6.07    1.18
  -8  14  -7    5.16    0.96
   8  14   7    5.64    0.92
   8 -15   6    2.35    1.39
   8  15  -6    1.60    0.99
   8  15  -5    3.45    1.21
   8  15  -4    1.25    1.28
  -8  15   4    2.86    1.19
  -8  15   4    2.14    1.14
   8  15  -3   10.05    1.57
  -8  15   3   15.54    2.04
  -8  15   3   15.49    2.12
  -8  15   3   14.67    1.55
  -8  15   3   15.69    1.64
  -8  15   2    8.82    1.85
   8  15  -2    8.42    1.51
  -8  15   2    8.61    1.51
  -8  15   2    7.77    1.88
  -8  15   2    7.78    1.36
   8  15  -2    8.25    2.10
  -8  15   2    8.92    2.49
  -8  15   1    7.72    1.72
   8  15  -1    8.19    2.14
  -8  15   1    7.14    2.37
  -8  15   1   11.60    1.87
  -8  15   1    8.23    1.29
   8  15   0    4.03    1.32
  -8  15   0    0.96    1.42
  -8  15   0    2.08    1.53
   8  15   0    2.30    2.11
  -8  15   0    1.94    2.09
   8  15   1    9.82    1.63
   8  15   1   13.15    1.90
  -8  15  -1    8.91    1.59
  -8  15  -1    7.65    2.16
   8  15   1   13.06    2.53
  -8  15  -2   10.13    2.03
   8  15   2    7.69    2.53
   8  15   2    9.68    1.69
   8  15   2   10.46    1.87
  -8  15  -2    6.97    1.37
   8  15   2    9.23    1.66
  -8  15  -2   10.13    1.51
   8  15   3   14.29    1.73
  -8  15  -3   14.54    1.59
   8  15   3   15.06    2.04
   8  15   3   12.26    1.78
  -8  15  -3   16.28    1.56
  -8  15  -4    2.95    1.39
  -8  15  -4    1.95    1.21
  -8  15  -5    5.38    1.33
  -8  15  -5    3.60    1.15
   8  15   6   -0.08    0.86
  -8 -15   6    1.86    1.50
   8  15   6    2.21    1.06
  -8  15  -6    0.58    1.04
  -8  15  -7    1.51    0.76
   8 -16   6    6.79    1.22
   8 -16   5   -0.91    1.63
   8  16  -5    2.73    1.08
   8  16  -4    4.49    1.28
  -8  16   4    1.63    1.09
   8  16  -3    5.91    1.35
  -8  16   3    3.30    1.69
  -8  16   3    4.27    1.81
  -8  16   3    5.16    1.23
  -8  16   3    4.04    1.29
  -8  16   2   28.91    2.20
  -8  16   2   29.09    2.06
  -8  16   2   30.42    2.46
  -8  16   2   28.87    2.42
   8  16  -1    1.82    2.09
  -8  16   1    4.05    2.28
  -8  16   1    4.10    1.72
  -8  16   1    1.24    1.08
  -8  16   1    1.97    1.63
   8  16   0   11.62    2.52
  -8  16   0    8.51    2.35
  -8  16   0   15.90    1.81
  -8  16   0   17.90    1.95
   8  16   1    2.78    1.39
  -8  16  -1    1.12    1.96
   8  16   1    1.99    2.35
   8  16   1    3.44    1.69
  -8  16  -1    1.98    1.38
  -8  16  -1    2.90    1.52
   8  16   2   28.31    2.43
  -8  16  -2   27.46    2.15
   8  16   2   31.03    2.25
  -8  16  -3    5.96    1.32
  -8  16  -3    5.51    1.21
   8  16   3    5.99    1.51
  -8  16  -4    1.94    1.15
   8  16   4    1.75    1.20
  -8  16  -5    2.44    1.00
  -8 -16   5    1.36    1.76
  -8  16  -5    2.05    1.14
   8  16   6    4.41    0.83
  -8  16  -6    4.64    1.00
   8 -17   6    5.76    0.85
   8  17  -5    7.24    1.02
   8 -17   5    0.97    1.42
   8  17  -4    4.39    1.17
  -8  17   3    7.50    1.29
  -8  17   3    8.96    1.23
  -8  17   2    1.71    1.57
  -8  17   2    1.24    1.31
  -8  17   2    2.55    1.67
  -8  17   1    4.96    1.62
  -8  17   1    4.22    1.66
  -8  17   0   16.18    1.92
  -8  17   0   13.39    1.75
  -8  17  -1    6.58    1.57
  -8  17  -1    4.42    1.33
   8  17   1    5.74    1.76
  -8  17  -2    0.13    1.43
   8  17   2    0.93    1.66
  -8  17  -2    1.91    1.25
  -8  17  -3    9.18    1.22
   8  17   3    7.00    1.36
   8  17   4    4.16    1.17
   8  17   5    4.27    0.96
  -8  17  -6    2.92    0.86
   8  17   6    3.78    0.62
   8 -18   5    3.21    1.13
  -8  18   3    1.69    1.04
  -8  18   2    1.66    1.47
  -8  18   2    2.27    1.19
  -8  18   2    4.96    1.58
  -8  18   1   12.31    1.73
  -8  18   1   13.86    1.61
  -8  18   1   13.32    1.84
   8  18   0    6.30    1.63
  -8  18   0    9.53    1.58
  -8  18   0    7.02    1.42
  -8  18   0    6.14    1.62
  -8  18  -1   14.18    1.76
   8  18   1   14.56    1.82
  -8  18  -1   15.76    1.59
   8  18   1   12.93    1.37
   8  18   2    2.35    1.11
   8  18   2    2.31    1.56
  -8  18  -2    1.33    1.13
  -8  18  -2    3.72    1.40
  -8  18  -3    1.13    1.29
  -8  18  -3    0.47    0.94
   8  18   3    2.03    1.06
   8  18   4    1.92    0.95
   8  18   5    3.32    0.76
   8 -19   4   -2.45    1.20
  -8  19   3    1.35    0.88
  -8  19   2    7.60    1.44
  -8  19   2    9.33    1.24
   8  19  -1   22.84    1.84
  -8  19   1   21.41    1.85
   8  19  -1   18.57    1.52
  -8  19   1   24.09    1.79
  -8  19   1   22.50    1.93
   8  19   0    4.84    1.44
  -8  19   0    3.51    1.36
  -8  19   0    2.65    1.46
  -8  19   0    1.95    1.14
   8  19   1   16.88    1.41
  -8  19  -1   23.25    1.70
  -8  19  -1   20.02    1.77
   8  19   1   19.31    1.87
  -8  19  -2    8.27    1.16
   8  19   2    7.84    1.07
  -8  19  -2    9.72    1.42
   8  19   3    0.54    0.87
  -8  19  -3    3.01    1.15
   8  19   4    1.63    0.73
  -8  19  -4    1.29    0.93
   8  19   5    3.82    0.55
  -8  19  -5    4.92    0.71
  -8  20   2    5.16    0.99
  -8  20   1    3.35    1.05
   8  20  -1    2.10    1.12
  -8  20   1    1.07    1.16
   8  20   0    7.52    1.02
  -8  20   0    9.32    1.19
  -8  20   0    7.61    1.29
   8  20   0    8.34    1.33
  -8  20   0    8.05    1.34
  -8  20  -1    0.32    0.96
  -8  20  -1    2.32    1.10
   8  20   1   -0.04    1.16
  -8  20  -1    0.80    1.20
   8  20   2    5.07    0.76
  -8  20  -2    7.72    1.17
  -8  20  -2    6.05    0.91
  -8  20  -3    3.53    0.95
   8  20   3    2.85    0.66
   8  20   4    1.83    0.49
   8  20   4    1.70    0.53
  -8  20  -4    3.34    0.69
  -8  21   2    2.77    0.70
  -8  21   1   13.07    1.11
  -8  21   0    9.16    0.97
   8  21   0    6.46    0.76
  -8  21  -1   11.87    1.01
   8  21   1    9.80    0.94
   8  21   2    2.63    0.68
   8  21   3    0.99    0.49
  -8  22   1    1.23    0.51
  -8  22   0    1.42    0.53
  -9   0   0   14.00    1.43
   9   0   1    6.43    0.71
  -9   0   1    6.71    0.89
  -9   0   1    8.94    1.44
   9   0   2    7.56    1.43
  -9   0   2    7.12    1.42
  -9   0   2    8.11    1.62
   9   0   3    5.04    1.75
  -9   0   3    4.49    1.70
   9   0   4    1.17    1.91
  -9   0   4    0.71    1.87
   9   0   4   -0.24    2.39
  -9   0   4   -0.05    1.62
  -9   0   5    4.02    1.31
   9   0   5    3.41    2.13
  -9   0   5    5.33    2.09
  -9   0   5    4.63    1.28
  -9   0   5    3.60    1.48
   9   0   5    4.01    2.63
   9   0   6    0.63    1.47
  -9   0   6    1.28    1.44
   9   0   6   -1.45    2.25
  -9   0   6   -0.58    2.12
  -9   0   6    0.56    1.52
  -9   0   6    1.04    1.43
   9   0   6    0.80    2.82
  -9   0   7    1.14    1.64
   9   0   7    1.88    1.52
  -9   0   7    0.51    1.47
   9   0   7    3.66    2.11
  -9   0   7   -0.22    1.99
  -9   0   7    2.99    1.52
  -9   0   7    0.78    1.37
   9   0   7    7.24    2.97
  -9   0   8    1.33    1.14
  -9   0   8    1.17    1.31
   9   0   8   -2.09    1.34
  -9   0   8    0.22    1.25
  -9   0   9    1.95    0.91
  -9   1   9    7.66    1.02
  -9   1   8   41.01    2.50
   9  -1   8   35.25    2.53
  -9   1   8   44.90    2.53
  -9   1   8   42.42    2.55
  -9   1   7    0.09    1.55
  -9   1   7    0.67    1.40
   9  -1   7    1.74    1.57
  -9   1   7    1.27    1.98
   9  -1   7    0.61    2.18
  -9   1   7    3.14    1.49
  -9   1   7    1.28    1.37
   9  -1   7    5.56    2.95
  -9   1   6    6.02    1.49
   9  -1   6    6.20    1.65
  -9   1   6    4.35    2.12
   9  -1   6    3.16    2.39
  -9   1   6    5.71    1.59
  -9   1   6    5.97    1.49
   9  -1   6    5.90    3.04
   9  -1   5    3.17    1.42
  -9   1   5    2.39    1.28
   9  -1   5    4.12    2.26
  -9   1   5    1.56    1.94
  -9   1   5    2.28    1.31
  -9   1   5    2.18    1.24
   9  -1   5    3.88    2.73
   9  -1   4    3.00    2.02
  -9   1   4    1.03    1.87
   9  -1   4    3.28    2.53
  -9   1   3  150.16    7.74
   9  -1   3  151.71    7.78
  -9   1   2    7.84    1.37
   9  -1   2    9.45    1.57
  -9   1   2    7.92    1.59
  -9   1   1   89.25    4.44
   9  -1   1   89.03    4.48
  -9  -1  -1   94.47    4.49
  -9   1   1   92.83    4.75
  -9  -1   0   13.82    1.41
  -9   1   0   14.66    1.41
  -9  -1   1   82.25    4.40
   9   1   1   90.00    4.26
  -9  -1   1   92.26    4.66
  -9  -1   2    8.10    1.56
   9   1   2    5.77    1.29
  -9  -1   2    6.21    1.49
   9   1   3  136.61    7.32
  -9  -1   3  144.38    7.41
   9   1   3  149.03    7.58
  -9  -1   4    0.83    2.00
   9   1   4    2.44    1.91
  -9  -1   4    1.63    1.63
   9   1   4    0.90    2.26
  -9  -1   5    1.97    1.31
   9   1   5    1.82    1.32
  -9  -1   5    4.40    2.15
   9   1   5    1.06    2.01
  -9  -1   5    2.13    1.20
  -9  -1   5    2.12    1.45
   9   1   5    1.08    2.44
  -9  -1   5    3.01    1.74
   9   1   6    3.27    1.49
  -9  -1   6    6.10    1.53
   9   1   6    4.99    2.17
  -9  -1   6    3.57    2.32
  -9  -1   6    4.89    1.58
  -9  -1   6    6.20    1.54
   9   1   6    5.28    2.72
   9   1   7   -0.05    1.46
  -9  -1   7    0.57    1.51
   9   1   7    2.14    2.03
  -9  -1   7    0.23    2.16
  -9  -1   7    3.68    1.51
  -9  -1   7    0.58    1.34
   9   1   7    4.68    2.74
  -9  -1   8   43.34    2.46
  -9  -1   8   43.32    2.51
  -9  -1   8   40.14    2.51
  -9  -1   9    7.51    0.97
  -9   2   9    3.40    0.93
  -9   2   8   19.58    1.70
  -9   2   8   17.94    1.60
   9  -2   8   17.54    1.76
  -9   2   7    4.07    1.99
   9  -2   7    4.60    2.44
   9  -2   7   10.39    3.13
  -9   2   7    3.81    1.39
   9  -2   7    4.67    1.63
  -9   2   7    5.13    1.43
  -9   2   7    5.14    1.59
  -9   2   6    2.17    1.41
   9  -2   6    4.61    1.64
   9  -2   6    4.67    3.13
  -9   2   6    3.32    1.43
   9  -2   6    5.46    2.55
  -9   2   6    4.03    1.99
  -9   2   5   40.54    2.60
   9  -2   5   44.64    2.74
   9  -2   5   48.76    4.07
  -9   2   5   45.82    3.25
   9  -2   5   51.43    3.59
  -9   2   5   44.24    2.73
  -9   2   5   45.49    2.83
  -9   2   5   42.75    2.76
  -9   2   4    2.40    1.79
   9  -2   4    8.64    2.16
  -9   2   3   31.01    2.36
   9  -2   3   33.32    2.76
  -9   2   2   21.90    1.63
   9  -2   2   17.24    2.02
  -9   2   1  499.37   22.76
   9   2  -1  460.04   22.78
  -9   2   0   35.38    2.06
   9   2   0   42.87    2.01
   9   2   1  497.27   24.24
  -9  -2   1  517.97   24.49
  -9   2  -1  528.75   24.26
   9   2   2   20.32    2.06
  -9  -2   2   19.68    1.96
   9   2   2   23.59    1.66
  -9  -2   2   18.76    1.97
   9   2   3   38.36    2.82
   9   2   3   33.18    2.47
  -9  -2   3   31.64    2.66
   9   2   4    3.38    2.34
  -9  -2   4    4.53    1.70
   9   2   4    3.63    1.81
  -9  -2   4    3.53    2.00
  -9  -2   5   41.79    2.79
  -9  -2   5   43.24    2.62
   9   2   5   45.37    3.68
  -9  -2   5   46.87    3.25
   9   2   5   42.88    2.61
  -9  -2   5   39.24    2.66
   9   2   5   49.05    3.23
  -9  -2   5   43.51    3.45
  -9  -2   6    4.18    1.57
   9   2   6    1.73    1.40
   9   2   6    0.98    2.61
  -9  -2   6    3.90    1.55
  -9  -2   6    2.60    1.49
  -9  -2   6    0.62    2.33
   9   2   6    4.78    1.99
   9   2   7    2.65    1.39
  -9  -2   7    4.20    1.58
   9   2   7    9.73    2.72
  -9  -2   7    5.95    1.52
  -9  -2   7    4.40    1.40
   9   2   7    2.01    1.96
  -9  -2   7    4.37    2.44
  -9  -2   8   16.46    1.76
  -9  -2   8   19.53    1.57
  -9  -2   8   18.93    1.69
  -9  -2   9    2.73    0.79
  -9   3   9    1.42    0.87
   9  -3   9    1.23    0.88
  -9   3   8    2.76    1.29
   9  -3   8    1.17    1.38
  -9   3   7   41.95    3.41
   9  -3   7   41.71    3.89
  -9   3   7   45.03    2.80
   9  -3   7   44.26    3.01
   9  -3   7   48.15    4.56
  -9   3   7   50.06    2.94
  -9   3   7   54.32    2.94
   9  -3   6   18.65    2.87
  -9   3   6   15.22    2.27
  -9   3   6   17.07    1.68
   9  -3   6   16.19    1.93
   9  -3   6   11.40    3.39
  -9   3   6   19.13    1.85
  -9   3   6   18.18    1.96
  -9   3   6   16.79    1.76
  -9   3   5   41.45    2.65
  -9   3   5   39.94    2.56
   9  -3   5   42.49    4.08
  -9   3   5   40.60    3.04
   9  -3   5   47.04    3.51
  -9   3   5   35.20    2.44
   9  -3   5   40.10    2.66
  -9   3   4   58.34    3.58
   9  -3   4   55.72    3.96
   9  -3   3    2.48    1.97
  -9   3   3    7.71    1.53
  -9   3   2   31.66    2.08
   9   3  -1   20.71    1.48
  -9   3   1   20.71    1.72
  -9   3   1   22.96    1.40
   9   3   0  138.54    6.69
  -9   3   0  138.90    6.72
   9   3   1   17.31    1.40
   9   3   1   18.96    1.31
   9   3   1   19.29    1.53
   9   3   2   32.01    2.32
  -9  -3   2   30.58    2.32
   9   3   2   29.68    2.01
   9   3   3    4.71    1.95
   9   3   3    7.45    1.55
  -9  -3   3    3.74    1.93
   9   3   4   40.74    3.38
  -9  -3   4   48.73    3.33
   9   3   4   50.02    3.21
  -9  -3   4   50.89    3.56
  -9  -3   5   38.36    2.55
  -9  -3   5   35.98    2.31
   9   3   5   33.24    3.27
  -9  -3   5   34.79    2.98
   9   3   5   35.51    2.29
  -9  -3   5   35.32    2.48
   9   3   5   39.47    2.89
  -9  -3   5   38.13    3.30
   9   3   6   13.42    1.63
  -9  -3   6   16.11    1.86
  -9  -3   6   10.08    2.20
   9   3   6   13.35    2.74
  -9  -3   6   16.79    1.83
  -9  -3   6   15.66    1.81
  -9  -3   6   17.70    2.79
   9   3   6   17.67    2.33
  -9  -3   7   44.77    2.75
   9   3   7   37.04    3.28
  -9  -3   7   41.28    3.81
   9   3   7   42.13    2.71
  -9  -3   7   43.70    2.90
  -9  -3   8    3.21    1.43
  -9  -3   8    2.81    1.30
  -9  -3   8    2.83    1.07
   9  -4   9    1.30    0.82
  -9   4   9    0.64    0.82
   9  -4   8    6.87    1.47
  -9   4   8    8.22    1.32
  -9   4   7    3.07    1.78
   9  -4   7    5.74    2.59
   9  -4   7    4.91    1.69
   9  -4   7    4.86    3.28
  -9   4   7    2.57    1.46
  -9   4   7    5.06    1.36
  -9   4   6   49.04    3.00
  -9   4   6   49.93    3.04
  -9   4   6   47.49    3.48
  -9   4   6   46.17    2.88
   9  -4   6   48.99    3.19
  -9   4   5   38.45    2.57
  -9   4   5   38.15    2.40
   9  -4   5   41.68    2.72
  -9   4   5   36.90    2.58
  -9   4   5   42.03    2.97
  -9   4   4   60.16    3.65
   9  -4   4   58.71    4.12
  -9   4   3  197.39    9.81
   9  -4   3  199.76   10.12
  -9   4   2  248.96   12.13
  -9   4   2  254.33   12.34
  -9   4   1    7.85    0.98
  -9   4   1    9.84    1.46
   9   4  -1    9.95    1.16
  -9   4   0  105.56    5.82
   9   4   0  130.33    5.81
   9   4   1   11.18    1.34
  -9   4  -1    8.60    1.13
   9   4   2  263.21   12.06
   9   4   2  250.88   12.16
  -9   4  -2  234.81   12.05
   9   4   2  248.95   12.04
   9   4   3  223.49   10.26
  -9  -4   3  194.34   10.45
   9   4   3  196.58   10.26
  -9  -4   3  210.06   10.28
   9   4   4   61.21    3.66
  -9  -4   4   55.50    4.07
   9   4   4   57.72    3.81
  -9  -4   4   57.30    3.81
  -9  -4   4   65.57    3.92
   9   4   5   37.62    2.43
  -9  -4   5   40.10    2.68
   9   4   5   38.42    3.31
  -9  -4   5   41.99    3.21
  -9  -4   5   39.41    2.43
  -9  -4   5   39.48    2.65
   9   4   5   46.21    3.08
  -9  -4   5   48.81    3.61
   9   4   5   39.37    2.46
   9   4   6   48.75    2.95
  -9  -4   6   51.55    3.19
  -9  -4   6   48.62    3.66
  -9  -4   6   49.52    3.10
  -9  -4   6   49.25    3.09
   9   4   6   54.77    3.58
  -9  -4   6   52.60    4.11
  -9  -4   7    5.37    1.46
  -9  -4   7    3.01    1.64
   9   4   7    2.12    1.80
  -9  -4   7    3.19    2.51
  -9  -4   7    3.11    1.31
  -9  -4   8    8.95    1.14
  -9  -4   8    9.10    1.35
  -9  -4   8    6.79    1.53
  -9   5   9    0.80    0.79
   9  -5   9    1.33    0.76
  -9   5   8   11.29    1.39
   9  -5   8    8.88    1.50
  -9   5   7    1.90    1.43
   9  -5   7    2.98    1.65
   9  -5   6   91.53    5.31
  -9   5   6  102.91    5.18
  -9   5   6  102.25    5.18
  -9   5   6   93.82    5.61
   9  -5   6   95.05    6.21
  -9   5   5   17.61    1.62
   9  -5   5   18.61    2.13
  -9   5   5   22.70    1.78
  -9   5   5   18.80    2.15
   9  -5   5   26.74    3.14
  -9   5   5   13.50    1.77
  -9   5   5   19.39    1.81
  -9   5   5   21.38    1.78
  -9   5   4   18.46    1.98
   9  -5   4   15.51    2.62
  -9   5   3   12.47    1.65
   9   5  -2   23.34    1.88
  -9   5   2   20.89    1.70
  -9   5   2   22.95    2.20
   9   5  -1   24.62    1.78
  -9   5   1   23.60    2.02
   9   5   0    4.54    1.04
  -9   5   0    5.35    1.23
  -9   5  -1   24.85    1.71
   9   5   1   18.99    1.76
  -9   5  -2   24.22    1.79
   9   5   2   20.92    1.74
   9   5   2   21.51    2.03
  -9  -5   3   12.03    1.82
   9   5   3    8.41    1.51
  -9  -5   4   13.43    2.05
  -9  -5   4   13.50    2.16
   9   5   4   13.20    1.84
  -9  -5   4   13.61    2.52
  -9  -5   5   16.76    2.02
   9   5   5   20.00    1.77
  -9  -5   5   18.85    1.88
   9   5   5   21.11    2.22
  -9  -5   5   21.09    2.97
  -9  -5   5   17.61    2.37
  -9  -5   6   86.77    4.68
  -9  -5   6   81.10    5.55
   9   5   6   85.79    5.00
  -9  -5   6   86.12    4.56
  -9  -5   6   84.56    4.55
  -9  -5   6   72.87    5.11
  -9  -5   7    2.54    1.34
  -9  -5   7    1.25    1.20
  -9  -5   7    5.42    1.67
  -9  -5   8    8.97    1.33
  -9  -5   8   10.15    1.55
  -9   6   9    2.54    0.74
   9  -6   9    1.44    0.69
  -9   6   8    3.97    1.17
   9  -6   8    5.79    1.41
  -9   6   7   17.58    1.75
   9  -6   7   18.23    1.99
   9  -6   6   59.54    3.60
  -9   6   6   57.85    3.30
  -9   6   6   57.52    3.36
  -9   6   6   54.96    3.74
   9  -6   6   55.93    4.48
   9  -6   5   99.12    5.72
  -9   6   5  109.97    5.53
  -9   6   5  108.68    5.92
   9  -6   5  113.79    6.64
  -9   6   5  103.46    5.47
  -9   6   5  113.36    5.54
  -9   6   4   16.82    1.46
  -9   6   4   15.27    1.54
  -9   6   4   13.11    1.33
  -9   6   4   13.42    1.51
  -9   6   4   15.54    1.84
   9  -6   4   14.20    2.66
   9   6  -3    6.80    1.68
  -9   6   3    2.90    1.99
  -9   6   3    4.49    1.33
  -9   6   2    6.84    1.26
  -9   6   2    7.46    1.85
   9   6  -2    8.01    1.45
  -9   6   2    7.57    1.23
   9   6  -1   13.26    1.44
  -9   6   1   10.04    1.72
   9   6   0  994.54   45.14
  -9   6   0  909.18   45.15
   9   6   1   11.24    1.47
  -9   6  -1    7.96    1.34
   9   6   2    7.46    1.19
   9   6   2    8.42    1.26
   9   6   2   10.84    1.72
  -9   6  -2    7.76    1.33
   9   6   3    4.41    1.37
   9   6   3    6.42    1.88
  -9   6  -3    6.46    1.49
   9   6   4   15.44    1.84
  -9  -6   4   12.33    2.64
  -9  -6   4   13.65    2.10
  -9  -6   5  113.90    6.41
  -9  -6   5  110.57    5.74
   9   6   5  106.87    5.55
  -9  -6   5  106.74    5.88
   9   6   5  124.70    6.17
  -9  -6   5  117.90    6.81
   9   6   5  112.44    5.75
  -9  -6   6   52.71    3.20
  -9  -6   6   55.76    3.46
  -9  -6   6   49.73    3.90
  -9  -6   6   55.65    3.23
   9   6   6   53.52    3.65
  -9  -6   6   62.03    4.57
   9   6   6   56.18    3.15
  -9  -6   7   14.17    1.47
  -9  -6   7   20.18    2.01
  -9  -6   8    4.91    1.16
  -9  -6   8    5.99    1.47
  -9   7   9    3.55    0.69
  -9   7   8    1.40    1.09
   9  -7   8    1.14    1.29
  -9   7   7    1.45    1.34
   9  -7   7    6.85    1.74
   9   7  -6   11.37    2.44
   9  -7   6   11.28    2.04
  -9   7   6   10.20    1.44
   9  -7   6   12.52    3.82
   9  -7   6   11.61    2.94
  -9   7   6    9.66    1.87
  -9   7   5   15.58    1.55
   9  -7   5   18.34    2.23
  -9   7   5   21.16    1.71
   9   7  -5   16.04    2.47
  -9   7   5   18.84    1.63
   9  -7   5   20.51    3.23
  -9   7   5   13.40    2.02
  -9   7   4   12.03    1.33
  -9   7   4   12.09    1.34
  -9   7   4   12.66    1.44
   9  -7   4   11.96    2.67
  -9   7   4   14.30    1.72
  -9   7   4   13.56    1.47
   9   7  -4   15.09    2.12
  -9   7   3    4.46    1.36
   9   7  -3    5.32    1.68
  -9   7   3    5.74    2.04
  -9   7   2    3.50    1.19
  -9   7   2    3.74    1.26
   9   7  -2    4.47    1.42
  -9   7   2    5.08    1.86
   9   7  -1   15.38    1.22
   9   7  -1   16.37    1.59
  -9   7   1   18.89    1.91
   9   7   0   20.08    1.84
  -9   7   0   24.79    1.95
  -9   7  -1   17.63    1.25
   9   7   1   18.34    1.83
  -9   7  -1   17.76    1.65
  -9   7  -2    5.52    1.35
   9   7   2    6.45    1.72
   9   7   2    4.32    1.16
   9   7   2    3.81    1.26
   9   7   3    5.79    1.46
  -9   7  -3    3.22    1.47
   9   7   3    3.12    1.88
  -9  -7   4   10.75    2.06
   9   7   4   10.94    1.24
   9   7   4   12.46    1.58
  -9  -7   4    9.63    2.58
   9   7   4   12.18    1.77
  -9   7  -4   13.70    1.92
  -9   7  -5   16.75    2.29
   9   7   5   20.37    1.85
   9   7   5   16.36    2.10
   9   7   5   13.93    1.46
  -9  -7   5   13.63    2.11
  -9  -7   5   16.27    1.73
  -9  -7   5   18.19    3.14
  -9  -7   5   18.49    2.44
   9   7   6   10.83    1.48
  -9  -7   6   15.92    3.06
   9   7   6    8.93    1.92
  -9  -7   6    9.63    2.00
  -9  -7   6    6.53    1.39
  -9  -7   6    7.35    1.43
  -9   7  -6   10.40    2.19
  -9  -7   6   10.13    2.24
  -9  -7   7    5.74    1.73
  -9  -7   8    0.90    1.37
  -9   8   9    1.21    0.56
  -9   8   8    8.18    1.09
   9  -8   8    8.25    1.33
  -9   8   7   14.38    1.60
   9  -8   7   18.12    1.95
   9  -8   6    7.68    1.97
   9   8  -6    3.25    2.20
   9  -8   6    8.76    3.74
  -9   8   6    2.12    1.64
   9  -8   6    6.26    2.91
  -9   8   5   12.06    1.53
  -9   8   5   14.35    1.47
   9   8  -5   15.17    2.34
   9  -8   5    7.21    2.09
  -9   8   5   11.75    1.41
   9  -8   5   15.20    3.21
  -9   8   5   11.20    1.90
  -9   8   4   33.31    2.17
   9   8  -4   39.54    2.93
  -9   8   4   32.50    2.21
  -9   8   4   33.77    2.55
  -9   8   4   33.87    2.12
  -9   8   3    0.85    1.42
  -9   8   3    2.23    1.30
  -9   8   3    0.67    1.50
  -9   8   3    0.80    2.04
   9   8  -3    1.80    1.57
   9   8  -2   11.24    1.66
  -9   8   2    8.14    1.95
  -9   8   2    9.42    1.40
  -9   8   1  108.01    6.32
   9   8  -1  120.37    5.91
   9   8  -1  130.10    6.23
   9   8   0   97.20    4.71
  -9   8   0   92.82    4.73
  -9   8   0   79.19    4.36
   9   8   0   89.21    4.36
  -9   8  -1  104.66    5.42
  -9   8  -1  111.56    5.73
  -9   8  -2    9.73    1.56
   9   8   2   11.65    1.99
   9   8   2    9.87    1.34
   9   8   3    3.04    1.31
   9   8   3    0.72    1.89
  -9   8  -3    2.95    1.45
   9   8   3    2.72    1.34
   9   8   3   -0.07    1.35
  -9   8  -4   37.23    2.77
   9   8   4   35.42    2.66
  -9  -8   4   35.49    3.07
   9   8   4   34.39    2.43
  -9  -8   5   12.03    3.12
   9   8   5   11.06    1.91
  -9   8  -5   11.39    2.16
  -9  -8   5    7.99    2.03
  -9  -8   5   10.62    2.24
   9   8   5   10.53    1.61
  -9  -8   6    3.91    2.84
   9   8   6    3.67    1.71
  -9  -8   6    6.44    2.03
  -9   8  -6    2.97    1.99
  -9  -8   6    3.78    1.24
   9   8   6    4.55    1.37
  -9  -8   6    6.53    2.17
  -9  -8   7   19.42    2.11
  -9   8  -8    8.04    1.08
  -9  -8   8    6.95    1.39
  -9   9   9    1.40    0.44
  -9   9   8    2.98    0.94
   9  -9   8    4.26    1.15
   9  -9   7   10.96    1.75
   9  -9   6    7.19    2.01
   9  -9   6    8.47    3.84
   9  -9   6   12.46    3.11
  -9   9   6    4.13    1.61
  -9   9   5   18.84    1.73
   9  -9   5   21.44    3.35
  -9   9   5   20.79    2.16
  -9   9   5   18.99    1.75
   9   9  -5   17.99    2.43
   9  -9   5   15.36    2.34
  -9   9   4   22.60    1.75
  -9   9   4   19.13    1.64
   9   9  -4   17.86    2.33
  -9   9   4   21.99    1.57
  -9   9   4   19.42    2.03
  -9   9   3    3.96    1.11
  -9   9   3    2.84    2.15
   9   9  -3    2.75    1.69
  -9   9   3    4.05    1.39
  -9   9   3    3.67    1.03
  -9   9   3    3.97    1.53
  -9   9   2   25.33    2.60
  -9   9   2   25.97    1.93
   9   9  -2   20.95    2.11
  -9   9   1   51.60    3.42
   9   9  -1   51.64    2.80
   9   9  -1   53.23    3.20
   9   9   0   10.76    1.17
  -9   9   0   10.93    1.21
   9   9   0   11.05    1.73
  -9   9   0   11.21    1.71
  -9   9  -1   54.93    3.24
  -9   9  -1   54.80    2.89
   9   9   1   51.27    3.40
   9   9   2   19.72    1.76
  -9   9  -2   24.50    1.99
   9   9   2   24.49    2.38
  -9   9  -3    3.24    0.96
   9   9   3    4.72    2.09
  -9   9  -3    3.67    1.55
   9   9   3    3.23    1.42
   9   9   3    2.74    1.43
  -9  -9   4   17.86    2.51
   9   9   4   17.25    2.05
  -9   9  -4   24.35    2.32
   9   9   4   21.36    1.96
  -9   9  -5   20.03    2.37
   9   9   5   16.91    1.84
  -9  -9   5   15.87    2.30
  -9  -9   5   13.22    3.17
   9   9   5   12.28    1.96
  -9  -9   5   19.00    2.60
  -9  -9   6    6.67    2.03
  -9  -9   6    8.52    3.01
   9   9   6    4.38    1.63
  -9  -9   7   10.10    1.84
  -9   9  -8    3.22    0.93
   9   9   8    3.88    1.01
  -9  10   8    2.07    0.82
   9 -10   8    2.98    0.98
   9 -10   7   15.23    1.82
  -9  10   6   10.27    1.45
   9 -10   6    9.73    2.02
   9 -10   5   13.53    3.17
  -9  10   5   13.32    1.92
   9  10  -5   14.44    2.36
  -9  10   5   18.04    1.63
  -9  10   5   18.76    1.71
   9  10  -4    5.83    1.98
  -9  10   4    4.17    1.51
  -9  10   4    4.20    1.21
  -9  10   4    4.49    1.29
  -9  10   3   10.76    1.40
  -9  10   3   12.12    1.24
  -9  10   3   11.36    1.30
  -9  10   3   11.44    2.48
   9  10  -3   11.50    1.93
  -9  10   3   11.98    1.84
  -9  10   2    7.60    1.22
   9  10  -2    7.16    1.69
  -9  10   2    6.50    2.11
  -9  10   2    5.76    1.21
  -9  10   2    5.46    1.46
   9  10  -2    6.59    1.13
  -9  10   1   24.16    2.42
  -9  10   1   24.34    1.96
   9  10  -1   24.30    1.69
   9  10  -1   25.63    2.19
   9  10   0   23.69    2.21
  -9  10   0   23.47    2.19
   9  10   0   23.17    1.69
   9  10   1   25.35    2.35
  -9  10  -1   23.11    1.63
  -9  10  -1   22.81    2.06
   9  10   2    7.61    1.41
  -9  10  -2    6.19    1.20
  -9  10  -2    5.28    1.52
   9  10   2    8.46    2.11
   9  10   2    8.40    1.42
  -9  10  -2    5.65    1.05
   9  10   2    7.56    1.26
  -9  10  -2    5.84    1.19
   9  10   3   10.50    1.69
  -9  10  -3   12.41    1.38
  -9  10  -3   10.76    1.28
   9  10   3   14.80    2.43
  -9  10  -3   11.78    1.79
   9  10   4    3.86    1.52
  -9 -10   4    3.59    2.13
  -9  10  -4    0.82    1.72
   9  10   4    2.85    1.56
   9  10   5   14.31    1.76
  -9 -10   5   17.11    3.45
   9  10   5   13.20    1.93
  -9  10  -5   12.73    2.20
  -9 -10   5   13.07    2.52
  -9 -10   6   11.70    2.19
  -9  10  -7   11.81    1.46
  -9 -10   7   17.85    1.93
  -9  10  -8    0.86    0.84
   9  10   8    1.03    0.88
   9 -11   8   12.16    1.04
   9 -11   7    3.15    1.47
  -9  11   6    8.66    1.27
   9 -11   6    7.48    1.94
   9  11  -5   44.84    3.65
  -9  11   5   52.40    3.05
  -9  11   5   51.67    2.91
   9 -11   5   48.92    4.47
   9  11  -4   10.10    2.10
  -9  11   4   11.95    1.35
  -9  11   4   11.20    1.31
  -9  11   3   10.36    1.45
  -9  11   3   11.00    1.89
  -9  11   3    9.67    1.39
  -9  11   3   12.22    1.26
  -9  11   3   11.17    2.61
   9  11  -3   12.83    2.04
  -9  11   2    8.78    1.32
   9  11  -2    6.18    1.77
  -9  11   2    7.45    2.27
  -9  11   2    7.05    1.31
  -9  11   2    8.19    1.00
  -9  11   2    6.90    1.59
   9  11  -2    5.51    1.24
   9  11  -1   13.98    1.94
  -9  11   1   13.73    2.19
  -9  11   1   13.29    1.52
  -9  11   1   13.78    1.40
   9  11  -1   11.98    1.35
   9  11   0   24.67    2.45
  -9  11   0   24.02    2.35
  -9  11   0   27.56    2.03
   9  11   0   27.51    1.96
  -9  11   0   27.40    2.05
  -9  11  -1   13.80    1.35
  -9  11  -1   12.06    1.78
   9  11   1    9.80    2.09
  -9  11  -1   14.21    1.51
   9  11   1   14.05    1.51
   9  11   1   16.04    1.66
  -9  11  -1   13.00    1.40
   9  11   2    4.85    1.48
  -9  11  -2    6.40    1.21
   9  11   2    6.51    1.49
  -9  11  -2    6.34    1.15
  -9  11  -2    6.72    1.62
   9  11   2    8.44    2.17
  -9  11  -2    9.13    1.31
   9  11   2    6.84    1.34
   9  11   3   16.48    1.81
  -9  11  -3   14.56    1.52
   9  11   3    9.35    1.77
  -9  11  -3   11.73    1.41
  -9  11  -3   11.66    1.37
   9  11   3   15.14    1.54
   9  11   3   12.82    2.54
  -9  11  -3   10.15    1.87
  -9  11  -4    9.62    2.04
   9  11   4    9.92    1.73
  -9 -11   4   11.07    2.40
  -9  11  -4   14.36    1.58
  -9  11  -5   51.43    2.98
   9  11   5   51.63    3.07
  -9  11  -5   46.17    3.46
  -9 -11   5   47.10    4.57
  -9 -11   5   38.78    3.71
  -9  11  -6    7.54    1.44
  -9 -11   6    6.36    2.00
  -9  11  -7    1.39    1.12
   9  11   7    0.15    1.13
   9  11   8   14.60    1.05
  -9  11  -8   10.01    1.00
   9 -12   7    9.74    1.45
   9  12  -7    6.92    1.11
   9 -12   6    3.51    1.83
  -9  12   6    2.23    1.08
  -9  12   5    9.45    1.43
  -9  12   5    8.97    1.31
  -9  12   4    8.42    1.23
  -9  12   4    6.72    1.27
   9  12  -4   10.63    2.08
  -9  12   3   12.21    2.83
   9  12  -3   16.53    2.27
  -9  12   3   11.79    1.56
  -9  12   3   14.35    1.33
  -9  12   3   12.47    2.01
   9  12  -3   14.57    1.57
  -9  12   3   15.21    2.25
  -9  12   3   14.78    1.62
   9  12  -2   28.52    2.54
  -9  12   2   28.11    2.27
   9  12  -2   30.67    1.98
  -9  12   2   26.98    1.74
  -9  12   2   27.01    2.08
  -9  12   2   27.04    2.03
  -9  12   2   28.38    2.99
   9  12  -1   34.53    2.10
   9  12  -1   32.91    2.66
  -9  12   1   28.73    2.86
  -9  12   1   28.22    2.06
  -9  12   1   30.33    2.26
   9  12   0    7.72    1.46
  -9  12   0    9.68    1.47
  -9  12   0    8.57    1.15
   9  12   0    6.40    1.96
  -9  12   0    9.60    1.95
   9  12   1   32.35    2.14
   9  12   1   32.71    2.30
  -9  12  -1   31.63    2.17
   9  12   1   34.84    2.88
  -9  12  -1   31.41    2.23
  -9  12  -1   26.55    1.98
  -9  12  -1   24.89    2.47
   9  12   2   29.10    2.05
   9  12   2   33.27    3.01
   9  12   2   31.71    2.29
  -9  12  -2   26.58    2.07
  -9  12  -2   25.60    2.08
  -9  12  -2   27.61    1.92
  -9  12  -2   28.24    2.45
   9  12   2   30.50    2.26
   9  12   3   12.61    1.94
  -9  12  -3   15.16    1.59
   9  12   3    9.59    2.53
  -9  12  -3   12.71    2.07
  -9  12  -3   12.90    1.52
  -9  12  -3   10.82    1.47
   9  12   3   16.13    1.62
   9  12   3   17.27    1.83
   9  12   4    7.33    1.46
  -9  12  -4    8.06    1.87
  -9  12  -4    7.38    1.34
  -9 -12   4    6.37    2.36
  -9  12  -4    8.00    1.52
  -9  12  -5   10.08    1.57
   9  12   5   10.54    1.63
  -9  12  -6    2.27    1.17
  -9  12  -6    1.13    1.27
  -9 -12   6    2.02    1.89
   9  12   6    1.20    1.16
   9  12   7    9.71    1.19
  -9  12  -7    7.98    1.19
  -9  12  -8    9.99    0.87
  -9  13   7   10.35    0.99
   9 -13   7    9.05    1.25
  -9  13   6    2.70    1.02
   9 -13   6    3.82    1.69
   9  13  -6    1.25    1.16
  -9  13   5    3.23    1.10
  -9  13   5    3.22    1.24
   9  13  -5    3.28    1.32
   9  13  -4    5.92    2.04
   9  13  -4    8.68    1.49
  -9  13   4   11.51    1.23
  -9  13   4    8.27    1.31
   9  13  -4    9.56    1.10
  -9  13   4    9.28    1.49
  -9  13   3   16.82    2.90
   9  13  -3   14.42    2.26
  -9  13   3   18.13    1.39
  -9  13   3   16.44    1.70
  -9  13   3   16.69    2.17
   9  13  -3   14.63    1.66
  -9  13   3   14.95    2.28
  -9  13   3   17.39    1.72
  -9  13   2   71.01    4.81
  -9  13   2   80.49    4.21
   9  13  -2   67.81    3.79
  -9  13   2   71.04    4.05
   9  13  -2   58.88    4.27
  -9  13   2   70.88    3.86
  -9  13   2   69.87    3.93
  -9  13   2   68.10    3.57
   9  13  -1    1.00    1.26
   9  13  -1    3.89    1.88
  -9  13   1    3.48    2.14
  -9  13   1    3.64    1.16
  -9  13   1    3.55    1.37
   9  13   0    2.14    1.34
  -9  13   0   -0.28    1.31
   9  13   0    0.25    1.91
  -9  13   0    3.30    1.89
  -9  13  -1    3.01    1.23
  -9  13  -1    3.04    1.87
   9  13   1    3.78    2.19
   9  13   1    4.14    1.47
   9  13   1    1.89    1.48
  -9  13  -1    2.80    1.47
  -9  13  -1    3.06    1.40
   9  13   2   70.52    3.83
   9  13   2   71.09    4.00
  -9  13  -2   78.95    3.91
   9  13   2   62.38    4.64
  -9  13  -2   72.95    3.96
  -9  13  -2   67.90    3.77
  -9  13  -2   70.11    4.29
   9  13   2   58.85    3.97
   9  13   3   13.68    1.68
   9  13   3   15.43    2.82
  -9  13  -3   18.10    2.20
  -9  13  -3   19.14    1.79
   9  13   3   13.92    1.89
   9  13   3   12.54    1.96
  -9  13  -3   15.70    1.57
  -9  13  -3   17.25    1.64
  -9  13  -4    9.02    2.01
   9  13   4    8.65    1.49
  -9  13  -4   11.74    1.59
  -9  13  -4    9.11    1.40
  -9 -13   4    8.76    2.34
  -9  13  -5    2.14    1.19
  -9  13  -5    1.89    1.39
  -9  13  -6    1.64    1.05
  -9  13  -6    2.13    1.20
   9  13   6    2.83    1.14
  -9 -13   6    3.38    1.77
   9  13   7    8.61    1.08
  -9  13  -7    8.35    1.10
   9 -14   7    4.58    0.88
   9 -14   6    4.03    1.54
  -9  14   6    4.39    0.94
   9  14  -6    5.11    1.12
  -9  14   5    1.99    1.00
   9  14  -5    2.77    1.25
   9  14  -4   27.01    2.02
  -9  14   4   25.87    2.02
  -9  14   4   27.27    1.78
  -9  14   4   27.07    1.97
  -9  14   3    2.14    2.46
   9  14  -3    0.93    1.84
  -9  14   3    3.59    1.01
   9  14  -3    1.44    1.31
  -9  14   3    0.26    1.81
  -9  14   3    0.89    1.93
  -9  14   3    2.56    1.27
  -9  14   3    0.11    1.26
  -9  14   2   39.98    3.61
  -9  14   2   45.32    3.10
   9  14  -2   44.61    2.65
  -9  14   2   40.93    2.87
   9  14  -2   40.74    3.25
  -9  14   2   38.60    2.60
  -9  14   2   40.70    2.75
  -9  14   1   14.10    1.83
   9  14  -1   12.74    2.26
  -9  14   1   13.37    2.56
  -9  14   1   13.39    1.47
  -9  14   1   15.53    1.90
   9  14   0    5.95    1.40
  -9  14   0    6.03    1.50
   9  14   0    4.67    2.09
  -9  14   0    7.93    2.23
   9  14   1   14.59    1.74
   9  14   1   13.84    1.84
  -9  14  -1   12.91    1.67
  -9  14  -1   14.69    2.24
   9  14   1   17.41    2.63
   9  14   2   37.57    3.56
  -9  14  -2   43.81    2.73
   9  14   2   45.35    2.85
  -9  14  -2   38.37    2.54
  -9  14  -2   33.07    3.04
   9  14   2   42.79    2.88
   9  14   2   46.00    2.71
  -9  14  -2   42.83    2.75
  -9  14  -3    2.73    1.23
   9  14   3    1.01    1.72
   9  14   3   -0.94    2.41
  -9  14  -3    0.82    1.69
  -9  14  -3    2.41    1.38
  -9  14  -3    1.84    1.23
   9  14   3    3.53    1.45
   9  14   3    2.21    1.54
  -9  14  -4   25.62    1.95
   9  14   4   28.33    2.05
  -9  14  -4   29.43    2.18
   9  14   4   26.67    2.20
  -9  14  -5    1.99    1.11
  -9  14  -5    2.15    1.31
  -9  14  -6    4.81    1.19
   9  14   6    5.79    1.07
  -9 -14   6    4.97    1.66
   9  14   7    6.50    0.93
  -9  14  -7    4.14    0.90
   9 -15   6    9.06    1.39
   9  15  -6    6.05    1.03
   9 -15   5   -0.08    1.73
   9  15  -5    3.42    1.15
   9  15  -4    6.87    1.37
  -9  15   4    7.55    1.29
  -9  15   4    7.57    1.22
   9  15  -3    7.80    1.43
  -9  15   3    7.97    1.86
  -9  15   3   10.34    1.96
  -9  15   3    8.41    1.38
  -9  15   3    5.86    1.38
  -9  15   2   12.35    1.88
   9  15  -2   10.10    1.50
  -9  15   2    9.60    1.57
   9  15  -2    9.73    2.16
  -9  15   2    6.78    2.44
  -9  15   2    9.93    1.91
  -9  15   2    8.06    1.36
  -9  15   1   15.20    1.89
  -9  15   1   12.41    1.85
   9  15  -1   10.64    2.24
  -9  15   1   10.88    2.46
  -9  15   1   12.34    1.42
   9  15   0    6.26    1.40
  -9  15   0    4.27    1.51
   9  15   0    3.56    2.19
  -9  15   0    6.32    2.20
   9  15   1    9.46    1.62
   9  15   1   10.05    1.79
  -9  15  -1   13.30    1.68
  -9  15  -1    9.36    2.10
   9  15   1    7.77    2.49
   9  15   2    8.47    2.48
  -9  15  -2    7.31    2.03
   9  15   2   10.44    1.72
   9  15   2   10.43    1.85
  -9  15  -2    8.51    1.42
   9  15   2    9.81    1.69
  -9  15  -2   10.78    1.54
   9  15   3   10.57    1.66
  -9  15  -3   12.76    1.65
  -9  15  -3    8.45    1.41
   9  15   3    7.00    1.88
   9  15   3   10.85    1.62
  -9  15  -3   10.41    1.39
  -9  15  -4    6.69    1.48
   9  15   4    6.03    1.42
  -9  15  -4    8.21    1.29
  -9  15  -5    3.46    1.08
  -9  15  -5    2.17    1.28
  -9 -15   5    1.54    1.81
   9  15   6    6.46    0.99
  -9  15  -6    7.82    1.17
  -9  15  -7    0.96    0.73
   9 -16   6    4.54    1.01
   9  16  -5    1.34    1.03
   9 -16   5   -2.18    1.56
   9  16  -4    2.69    1.21
  -9  16   3   20.26    1.77
  -9  16   3   20.73    1.71
  -9  16   3   17.70    2.11
   9  16  -3   21.25    1.77
  -9  16   2   30.23    2.32
  -9  16   2   32.48    2.15
  -9  16   2   30.60    2.47
  -9  16   2   33.22    2.55
  -9  16   1    3.82    1.76
  -9  16   1    4.05    1.60
   9  16   0   48.86    3.87
  -9  16   0   56.83    3.28
  -9  16   0   54.89    3.32
   9  16   0   52.76    3.03
   9  16   1    2.92    1.67
  -9  16  -1    1.58    1.37
   9  16   1    2.67    1.38
   9  16   2   34.44    2.61
  -9  16  -2   32.92    2.38
   9  16   2   36.08    2.45
   9  16   3   22.98    1.91
  -9  16  -3   19.29    1.68
  -9  16  -3   20.43    1.71
   9  16   4    3.19    1.30
  -9  16  -4    1.59    1.36
  -9  16  -4    1.20    1.08
   9  16   4    0.89    1.17
  -9  16  -5    1.80    1.20
  -9  16  -6   -0.29    0.95
   9  16   6    2.67    0.74
   9 -17   5   -0.23    1.27
  -9  17   3    1.75    1.12
  -9  17   2    1.74    1.22
  -9  17   2    0.73    1.54
  -9  17   2    2.32    1.59
  -9  17   1    8.04    1.63
  -9  17   1    8.07    1.76
  -9  17   0  116.34    5.60
  -9  17   0  115.88    5.61
   9  17   0   94.50    5.50
  -9  17   0   96.11    5.45
  -9  17  -1    8.69    1.46
   9  17   1    5.45    1.65
  -9  17  -1    7.95    1.61
  -9  17  -2    2.87    1.25
   9  17   2    0.10    1.60
  -9  17  -3    2.04    1.08
   9  17   3    0.62    1.19
   9  17   4    3.96    1.15
   9  17   5    1.05    0.87
  -9  17  -5   -0.19    1.06
   9  17   6    2.46    0.55
  -9  17  -6    2.53    0.80
   9 -18   5    9.14    1.04
  -9  18   3    3.36    1.04
  -9  18   2    8.04    1.33
  -9  18   2    4.91    1.50
  -9  18   2    8.50    1.62
  -9  18   1    2.40    1.46
  -9  18   1    3.34    1.62
  -9  18   0    1.75    1.33
   9  18   0    2.13    1.47
  -9  18   0    1.01    1.40
  -9  18   0    3.93    1.50
   9  18   1    4.36    1.10
  -9  18  -1    4.70    1.32
   9  18   1    4.91    1.59
  -9  18  -1    5.12    1.54
   9  18   2    5.99    1.22
  -9  18  -2    8.14    1.28
   9  18   2    7.58    1.60
  -9  18  -2    6.71    1.51
   9  18   3    3.35    1.08
   9  18   4    1.38    0.92
   9  18   5    7.41    0.84
   9 -19   4    3.95    1.10
  -9  19   3    2.20    0.86
  -9  19   2    2.42    1.05
  -9  19   1   11.41    1.52
   9  19  -1   10.10    1.49
  -9  19   1   12.40    1.60
   9  19  -1   11.36    1.11
   9  19   0    2.47    1.32
  -9  19   0    3.05    1.29
  -9  19   0    0.82    1.36
  -9  19   0    2.44    1.15
   9  19   1    9.73    1.07
  -9  19  -1   10.55    1.35
  -9  19  -1   15.31    1.58
   9  19   1   10.48    1.53
  -9  19  -1   11.51    1.43
   9  19   2    2.59    0.92
  -9  19  -2    2.95    1.32
  -9  19  -2    1.98    0.99
   9  19   3    2.32    0.88
  -9  19  -3    3.87    1.17
   9  19   4    4.73    0.78
   9  19   5    4.35    0.51
  -9  20   2    3.69    0.90
  -9  20   1    0.62    1.14
  -9  20   1    2.17    1.01
   9  20   0    5.70    1.22
  -9  20   0    7.13    1.29
  -9  20   0    8.00    1.12
   9  20   0    5.83    0.93
  -9  20  -1    0.90    1.17
  -9  20  -1    3.37    0.97
   9  20   2    3.67    0.68
  -9  20  -2    5.60    1.10
   9  20   3    1.56    0.59
  -9  20  -3    1.81    0.93
  -9  20  -4    2.40    0.65
   9  20   4    1.95    0.43
   9  20   4    1.52    0.49
  -9  21   2    2.79    0.65
  -9  21   1    9.38    0.95
   9  21   0    3.23    0.60
  -9  21   0    3.04    0.83
   9  21   1    7.27    0.81
  -9  21  -1    9.13    0.89
   9  21   2    2.10    0.61
   9  21   3    0.59    0.44
  -9  22   1    1.79    0.46
 -10   0   0  730.10   34.65
 -10   0   1   98.59    3.29
 -10   0   1   80.45    2.54
 -10   0   2   63.79    3.55
  10   0   2   57.64    3.31
 -10   0   2   59.57    3.34
 -10   0   3  147.70    7.33
  10   0   3  135.77    7.19
 -10   0   3  138.95    7.18
  10   0   4   12.87    2.65
 -10   0   4   14.08    2.05
 -10   0   4   13.72    2.17
  10   0   4   17.27    2.26
 -10   0   5    6.91    1.32
  10   0   5    8.11    2.65
 -10   0   5    7.98    1.39
 -10   0   5    9.29    1.58
 -10   0   5    6.35    1.57
  10   0   5    5.30    2.18
 -10   0   5    7.23    2.13
  10   0   6   17.62    1.81
 -10   0   6   18.39    1.79
  10   0   6   16.22    3.19
 -10   0   6   18.88    1.96
 -10   0   6   17.66    1.91
  10   0   6   16.68    2.53
 -10   0   6   18.14    2.60
 -10   0   7   31.84    2.97
  10   0   7   31.23    2.37
 -10   0   7   32.76    2.34
 -10   0   7   38.28    2.59
 -10   0   7   36.37    2.48
 -10   0   7   34.01    2.40
  10   0   7   37.59    3.85
 -10   0   8   12.48    1.54
 -10   0   8   12.36    1.45
  10   0   8   12.47    1.45
 -10   0   8   13.01    1.43
 -10   0   9    3.59    0.90
 -10   1   9    0.30    0.88
 -10   1   8    8.03    1.43
 -10   1   8   10.31    1.33
  10  -1   8    7.12    1.35
 -10   1   8    7.21    1.29
 -10   1   7    0.48    1.82
 -10   1   7    0.17    1.35
  10  -1   7    0.71    1.47
 -10   1   7    2.26    1.63
 -10   1   7    0.52    1.49
 -10   1   7    0.88    1.35
  10  -1   7    2.41    2.91
 -10   1   6   -0.12    1.36
  10  -1   6    0.16    1.48
  10  -1   6   -0.85    2.97
 -10   1   6   -0.13    1.92
  10  -1   6    0.60    2.32
 -10   1   6   -0.47    1.43
 -10   1   5    9.68    1.43
  10  -1   5   12.89    2.97
 -10   1   5   11.08    1.45
  10  -1   5   11.30    2.33
 -10   1   5   11.81    2.13
  10  -1   4    2.48    1.99
 -10   1   4    3.64    1.90
  10  -1   4    2.61    2.41
  10  -1   3   11.48    2.00
 -10   1   3   12.34    1.85
 -10   1   3   12.63    1.91
 -10   1   2   28.51    2.00
  10  -1   2   30.19    2.14
 -10   1   2   32.69    2.35
  10  -1   1  131.57    6.83
 -10   1   1  145.47    6.83
 -10  -1  -1  159.74    6.96
 -10   1   1  149.35    7.19
 -10  -1   0   14.54    1.47
 -10  -1   1  141.67    6.59
 -10   1  -1  133.58    6.50
 -10  -1   1  151.56    6.94
  10   1   1  134.88    6.49
  10   1   2   30.85    1.98
 -10  -1   2   33.69    2.22
 -10  -1   2   29.44    2.41
  10   1   3   10.06    1.75
 -10  -1   3   12.37    1.92
  10   1   3   12.77    2.31
 -10  -1   3    9.90    1.80
 -10  -1   4    5.20    1.98
  10   1   4    3.47    1.86
 -10  -1   4    2.90    1.72
  10   1   4    2.65    2.30
 -10  -1   5    9.63    1.44
 -10  -1   5   11.32    2.27
  10   1   5    8.36    2.05
 -10  -1   5    9.95    1.45
 -10  -1   5    9.14    1.62
 -10  -1   5    6.18    1.92
  10   1   5   11.62    2.75
  10   1   6    0.89    1.38
 -10  -1   6    1.07    1.43
  10   1   6    4.15    1.99
 -10  -1   6    0.22    2.20
 -10  -1   6   -0.14    1.52
 -10  -1   6   -1.42    1.45
  10   1   6    2.63    2.72
  10   1   7   -0.42    1.35
 -10  -1   7    1.26    1.46
 -10  -1   7    0.22    2.09
 -10  -1   7    0.10    1.50
 -10  -1   7    1.29    1.34
  10   1   7    2.43    2.67
 -10  -1   8    9.68    1.33
 -10  -1   8    9.00    1.44
 -10  -1   8    8.78    1.37
  10   1   8    5.65    1.26
 -10  -1   9    1.32    0.84
 -10   2   9    2.29    0.88
 -10   2   8   26.39    1.90
  10  -2   8   22.75    1.85
 -10   2   7    3.72    1.61
 -10   2   7    4.09    1.84
 -10   2   7    6.03    1.45
  10  -2   7    7.90    3.03
 -10   2   7    2.66    1.31
  10  -2   7    3.28    1.60
 -10   2   6    3.68    1.93
  10  -2   6    3.10    2.49
 -10   2   6    1.53    1.34
  10  -2   6    4.43    1.60
 -10   2   6    1.34    1.42
  10  -2   6    1.61    3.09
  10  -2   5    9.65    2.41
 -10   2   5    9.69    1.94
 -10   2   5    9.14    1.44
 -10   2   5   12.64    1.72
 -10   2   5   10.16    1.63
 -10   2   5    9.33    1.50
 -10   2   5    8.30    1.35
  10  -2   5   10.97    1.55
  10  -2   5   11.50    3.01
 -10   2   4   11.62    1.89
  10  -2   4   15.25    2.27
 -10   2   3   29.97    2.26
  10  -2   3   35.11    2.67
 -10   2   2  110.82    5.43
  10  -2   2  104.17    5.58
  10   2  -1  189.68    9.13
 -10   2   1  188.79    9.10
  10  -2   1  174.42    9.18
 -10  -2   0   19.65    1.54
 -10   2   0   14.38    0.97
 -10   2  -1  200.12    9.91
 -10  -2   1  223.11   10.26
 -10  -2   1  216.02   10.03
  10   2   2  115.96    5.72
 -10  -2   2  110.24    5.76
  10   2   2  106.21    5.43
 -10  -2   2  106.38    5.62
  10   2   3   36.47    2.80
 -10  -2   3   34.68    2.65
  10   2   3   34.49    2.38
 -10  -2   3   33.70    2.66
  10   2   4   13.80    2.49
 -10  -2   4   13.32    2.06
  10   2   4   13.81    1.87
 -10  -2   4   16.23    2.28
 -10  -2   5   10.58    1.51
 -10  -2   5   11.51    2.04
  10   2   5    8.90    2.54
 -10  -2   5   10.12    1.40
 -10  -2   5    8.37    1.66
 -10  -2   5   13.24    2.35
  10   2   5   11.31    1.94
  10   2   6   -0.02    1.35
 -10  -2   6    2.48    1.49
  10   2   6    2.12    2.58
 -10  -2   6    1.55    1.60
 -10  -2   6    1.14    1.50
  10   2   6    2.45    1.88
 -10  -2   6    2.07    2.31
  10   2   7    4.26    1.35
 -10  -2   7    4.11    1.53
  10   2   7    4.82    2.51
 -10  -2   7    6.51    1.55
 -10  -2   7    3.08    1.38
 -10  -2   7    2.69    2.17
 -10  -2   8   24.35    1.93
 -10  -2   8   27.84    2.00
 -10  -2   8   26.07    1.85
 -10  -2   9    2.20    0.81
 -10   3   9    1.37    0.85
  10  -3   8    7.50    1.38
 -10   3   8    9.71    1.38
 -10   3   7   17.73    2.30
 -10   3   7   20.04    1.77
  10  -3   7   20.01    2.01
  10  -3   7   20.25    3.57
 -10   3   7   24.02    1.89
 -10   3   7   23.48    1.99
  10  -3   6    4.71    2.50
 -10   3   6    6.66    2.00
 -10   3   6    3.89    1.32
  10  -3   6    6.39    1.63
  10  -3   6    4.26    3.15
 -10   3   6    4.59    1.56
 -10   3   6    4.87    1.48
 -10   3   6    1.43    1.65
 -10   3   5    3.49    1.77
  10  -3   5    6.51    2.39
 -10   3   5    3.19    1.22
  10  -3   5    4.56    1.54
 -10   3   5    2.93    1.30
 -10   3   5    3.78    1.51
 -10   3   5    4.71    1.51
  10  -3   5    4.39    2.93
  10  -3   4   15.88    2.42
 -10   3   4   18.31    1.95
 -10   3   3    9.04    1.49
  10  -3   3   10.84    2.09
 -10   3   2   35.48    2.14
  10  -3   2   30.65    2.50
  10   3  -1   22.03    1.37
 -10   3   1   19.62    1.67
 -10   3   1   17.29    1.21
 -10   3   0  129.12    6.11
  10   3   0  122.68    6.06
  10   3   1   16.01    1.36
  10   3   1   17.73    1.50
  10   3   2   34.43    2.00
 -10  -3   2   27.42    2.40
 -10  -3   2   32.14    2.42
  10   3   2   30.44    2.27
  10   3   3   10.37    1.52
 -10  -3   3    8.42    1.94
 -10  -3   3   10.04    1.86
  10   3   3   10.00    2.00
  10   3   4   16.22    1.95
 -10  -3   4   18.44    2.40
 -10  -3   4   14.59    2.14
  10   3   4   14.32    2.35
  10   3   5    4.45    1.22
 -10  -3   5    5.11    1.51
  10   3   5    3.36    1.76
 -10  -3   5    2.99    2.21
 -10  -3   5    2.12    1.19
 -10  -3   5    4.50    1.54
 -10  -3   5    3.84    1.92
  10   3   5    4.96    2.37
  10   3   6    2.42    1.35
 -10  -3   6    4.45    1.58
 -10  -3   6    8.00    2.54
  10   3   6    4.03    1.90
 -10  -3   6    3.76    1.60
 -10  -3   6    3.82    1.52
  10   3   6    5.47    2.45
 -10  -3   7   18.73    2.81
 -10  -3   7   22.83    1.87
 -10  -3   7   21.67    1.94
  10   3   7   18.78    1.75
 -10  -3   7   19.92    1.98
 -10  -3   8    8.40    1.21
 -10  -3   8    8.37    1.41
 -10  -3   8    8.10    1.43
 -10   4   9    3.63    0.85
 -10   4   8    7.55    1.30
  10  -4   8    5.59    1.37
  10  -4   7   16.89    1.92
 -10   4   7   19.48    1.76
 -10   4   7   16.65    1.82
  10  -4   6   14.70    1.93
 -10   4   6   10.30    1.47
 -10   4   6   10.13    2.03
  10  -4   6   15.49    2.92
 -10   4   6   12.85    1.70
  10  -4   6   10.99    3.60
 -10   4   6   11.63    1.73
 -10   4   5    4.50    1.50
 -10   4   5    4.49    1.18
  10  -4   5    6.27    1.64
 -10   4   5    4.57    1.44
  10  -4   5    7.68    3.10
 -10   4   5    5.17    1.65
  10  -4   5    3.96    2.33
 -10   4   5    5.09    1.37
 -10   4   4   31.52    2.30
  10  -4   4   34.23    2.96
 -10   4   3  121.28    5.61
  10  -4   3  114.29    5.98
 -10   4   3  101.31    5.22
  10   4  -2  406.24   19.78
 -10   4   2  409.62   19.72
 -10   4   2  428.69   19.94
 -10   4   1   18.73    1.74
  10   4  -1   21.42    1.49
  10   4   0   21.47    1.48
 -10   4   0   23.31    1.54
  10   4   1   24.80    1.68
 -10   4  -1   20.46    1.51
  10   4   2  443.05   20.58
  10   4   2  433.58   20.57
 -10  -4   2  418.72   20.83
 -10   4  -2  423.07   20.60
  10   4   3  124.95    6.18
 -10  -4   3  122.10    6.52
 -10  -4   3  120.39    6.46
  10   4   3  113.49    6.23
  10   4   4   34.47    2.58
 -10  -4   4   36.72    3.12
 -10  -4   4   37.74    2.86
  10   4   4   30.87    2.82
 -10  -4   5    4.19    1.94
  10   4   5    9.05    2.21
 -10  -4   5    4.88    1.21
  10   4   5    5.99    1.82
 -10  -4   5   10.01    2.46
 -10  -4   5    5.80    1.61
  10   4   5    4.64    1.26
 -10  -4   5    4.86    1.54
  10   4   5    5.78    1.27
 -10  -4   6   15.34    1.82
  10   4   6   10.74    1.49
  10   4   6    8.73    1.99
 -10  -4   6   13.19    2.70
 -10  -4   6   11.04    1.73
 -10  -4   6   11.77    1.74
 -10  -4   6   13.02    2.23
 -10  -4   7   17.99    1.96
 -10  -4   7   18.43    1.79
 -10  -4   7   18.83    1.78
 -10  -4   8    5.48    1.07
 -10  -4   8    5.92    1.36
 -10  -4   8    5.95    1.40
 -10   5   9    2.52    0.78
 -10   5   8    1.13    1.17
  10  -5   8    0.70    1.27
 -10   5   7    5.43    1.47
  10  -5   7    4.47    1.64
  10  -5   6   59.82    3.69
 -10   5   6   57.04    3.92
  10  -5   6   59.89    4.58
 -10   5   6   65.02    3.56
 -10   5   6   62.72    3.53
  10  -5   5    4.53    1.69
 -10   5   5    5.54    1.34
 -10   5   5    2.97    1.38
 -10   5   5    2.30    1.30
 -10   5   5    2.48    1.49
 -10   5   5    3.49    1.66
 -10   5   4   31.89    2.36
 -10   5   4   40.39    2.40
 -10   5   4   37.04    2.34
 -10   5   4   36.50    2.62
  10  -5   4   38.76    3.34
 -10   5   3   21.82    1.82
 -10   5   3   20.65    1.30
 -10   5   2   24.34    2.39
 -10   5   2   27.01    1.84
  10   5  -2   26.36    2.02
 -10   5   1   11.52    1.62
  10   5  -1   11.91    1.30
 -10   5   0  114.95    5.66
  10   5   0  110.98    5.61
  10   5   1   10.24    1.40
 -10   5  -1   10.80    1.26
  10   5   2   22.91    2.08
  10   5   2   24.45    1.81
 -10   5  -2   26.64    1.86
  10   5   3   22.43    1.89
 -10   5  -3   23.11    1.92
  10   5   4   30.10    2.38
 -10  -5   4   29.47    3.03
 -10  -5   4   32.71    2.78
 -10  -5   5    5.57    1.96
 -10  -5   5    2.58    2.42
  10   5   5    4.81    1.74
 -10  -5   5    4.60    1.69
  10   5   5    4.44    1.34
 -10  -5   5    5.32    1.54
 -10  -5   6   56.69    3.31
  10   5   6   48.46    3.51
 -10  -5   6   53.46    4.21
 -10  -5   6   53.24    3.18
 -10  -5   6   42.94    3.75
 -10  -5   6   53.47    3.19
 -10  -5   7    5.12    1.28
 -10  -5   7    7.66    1.67
 -10  -5   7    6.44    1.42
 -10  -5   8    0.80    1.31
 -10  -5   8    2.33    1.22
 -10  -5   8    1.48    0.89
 -10   6   9    1.95    0.71
  10  -6   8    5.47    1.31
 -10   6   8    5.63    1.19
  10  -6   7    6.41    1.67
 -10   6   7    6.66    1.43
 -10   6   6    9.76    1.89
  10  -6   6   12.71    2.89
 -10   6   6   10.44    1.50
  10  -6   6   14.79    1.98
  10  -6   5  102.91    5.89
 -10   6   5  113.63    5.72
 -10   6   5  115.32    5.80
 -10   6   5  116.66    5.72
 -10   6   5  105.10    5.77
 -10   6   5  108.79    6.06
  10  -6   5  121.80    6.81
 -10   6   4   14.38    1.38
 -10   6   4   16.27    1.60
 -10   6   4   17.70    1.55
 -10   6   4   18.47    1.62
 -10   6   4   17.56    1.82
  10  -6   4   14.88    2.70
  10   6  -3   48.03    3.08
 -10   6   3   45.04    2.84
 -10   6   2   23.14    1.87
 -10   6   2   27.62    1.92
 -10   6   2   27.31    2.44
  10   6  -1  102.13    4.82
 -10   6   1   82.06    4.92
 -10   6   0  453.79   22.89
  10   6   0  504.17   22.88
 -10   6  -1  100.04    4.98
  10   6   1   92.69    5.03
 -10   6  -2   26.69    2.07
  10   6   2   31.70    1.99
  10   6   2   29.14    2.34
 -10   6  -3   44.52    2.99
  10   6   3   50.27    2.94
 -10  -6   4   14.74    2.59
  10   6   4   16.62    1.90
 -10   6  -4   15.56    1.99
  10   6   4   14.42    1.61
 -10  -6   4   15.77    2.21
  10   6   5  124.80    6.24
 -10  -6   5  124.98    6.89
 -10  -6   5  105.85    5.94
 -10   6  -5  108.53    6.29
 -10  -6   5  110.17    5.86
 -10  -6   5  111.50    6.51
  10   6   5  114.89    5.86
  10   6   6   13.24    1.52
 -10  -6   6   15.51    2.42
 -10  -6   6   17.10    2.04
 -10  -6   6   11.66    1.72
 -10  -6   6   15.84    2.94
  10   6   6   13.45    1.99
 -10   6  -6   13.00    2.28
 -10  -6   6   12.27    1.66
 -10  -6   7    4.53    1.22
 -10  -6   7   10.46    1.72
 -10  -6   8    5.46    1.19
 -10   7   9    1.68    0.63
 -10   7   8    3.74    1.08
  10  -7   8    3.88    1.21
 -10   7   7    5.14    1.36
  10  -7   7    6.36    1.65
  10  -7   6   13.18    3.02
 -10   7   6    7.09    1.78
  10  -7   6    8.01    3.77
  10  -7   6   11.69    2.06
 -10   7   6   10.86    1.43
  10   7  -6   10.41    2.39
  10   7  -5   61.44    4.10
 -10   7   5   57.13    3.70
  10  -7   5   57.68    3.66
  10  -7   5   62.42    4.65
 -10   7   5   59.42    3.32
 -10   7   5   58.43    3.35
 -10   7   5   59.94    3.33
 -10   7   4   20.09    1.89
 -10   7   4   17.26    1.59
 -10   7   4   20.55    1.70
 -10   7   4   20.85    1.64
  10  -7   4   20.61    2.90
 -10   7   4   20.68    1.75
 -10   7   4   21.16    1.60
  10   7  -4   21.72    2.32
 -10   7   4   18.09    1.94
 -10   7   4   20.50    1.67
 -10   7   3   15.34    1.66
 -10   7   3   15.50    2.33
  10   7  -3   15.50    1.87
 -10   7   2   44.02    2.82
 -10   7   2   55.08    3.33
  10   7  -2   48.42    2.97
 -10   7   2   48.90    2.75
  10   7  -1   54.60    2.89
 -10   7   1   60.85    3.45
  10   7  -1   55.80    3.22
 -10   7   0   29.27    2.20
  10   7   0   29.42    2.10
 -10   7  -1   57.68    2.94
  10   7   1   52.24    3.35
 -10   7  -1   59.88    3.26
  10   7   2   42.25    2.95
  10   7   2   40.94    2.54
  10   7   3   14.43    1.68
 -10   7  -3   15.12    1.73
  10   7   3   16.28    2.16
  10   7   4   18.21    1.83
  10   7   4   20.42    2.03
 -10  -7   4   20.29    2.42
 -10   7  -4   19.15    2.10
 -10  -7   4   17.82    2.81
  10   7   5   57.69    3.25
  10   7   5   49.28    3.43
 -10  -7   5   45.91    3.39
 -10  -7   5   51.27    3.91
 -10  -7   5   55.30    3.18
 -10  -7   5   54.82    4.41
 -10   7  -5   57.77    3.70
  10   7   6   10.69    1.53
 -10  -7   6    6.74    1.45
 -10  -7   6   12.86    1.99
 -10   7  -6   11.72    2.14
 -10  -7   6    8.82    1.49
 -10  -7   6    8.96    2.28
 -10  -7   6   12.48    2.92
  10   7   6    7.16    1.81
 -10  -7   7    7.46    1.69
 -10   7  -8    3.38    0.99
 -10   8   9    1.62    0.52
 -10   8   8    7.00    1.06
  10  -8   8    5.51    1.21
  10  -8   7    5.15    1.61
  10  -8   6    9.35    1.96
  10   8  -6    9.24    2.27
  10  -8   6   14.05    3.01
 -10   8   6    9.04    1.78
  10  -8   6   12.09    3.80
 -10   8   5    3.94    1.34
 -10   8   5    2.61    1.18
  10  -8   5    0.72    1.92
  10  -8   5    5.34    2.91
 -10   8   5    2.35    1.57
 -10   8   5    2.23    1.18
  10   8  -5    4.15    2.03
 -10   8   4   27.39    1.83
 -10   8   4   27.41    2.12
 -10   8   4   26.95    1.93
 -10   8   4   25.76    1.88
  10   8  -4   31.38    2.59
  10  -8   4   27.97    3.30
 -10   8   4   25.80    2.23
 -10   8   4   25.82    1.94
 -10   8   3   12.84    1.53
 -10   8   3   14.06    1.85
  10   8  -3   11.57    1.86
 -10   8   3   13.06    2.36
  10   8  -2   32.67    2.43
 -10   8   2   29.88    2.14
 -10   8   2   34.73    2.78
  10   8  -1    6.73    0.98
 -10   8   1    5.01    1.66
  10   8  -1    4.77    1.41
  10   8   0    2.53    0.90
  10   8   0    2.27    1.38
 -10   8   0    1.13    1.39
 -10   8  -1    5.61    0.91
  10   8   1    5.80    1.59
 -10   8  -1    5.81    1.34
  10   8   2   32.72    2.16
 -10   8  -2   31.63    2.32
  10   8   2   35.07    2.68
 -10   8  -3   11.55    1.73
  10   8   3   16.11    2.22
  10   8   3   13.59    1.58
  10   8   3   12.68    1.59
  10   8   4   31.60    2.43
 -10  -8   4   31.06    2.93
  10   8   4   32.57    2.27
 -10   8  -4   24.70    2.49
 -10  -8   4   29.04    3.41
  10   8   5    1.50    1.47
 -10  -8   5    3.61    2.16
 -10  -8   5    1.31    1.92
 -10  -8   5    3.28    1.37
 -10   8  -5    3.26    1.84
 -10  -8   5    2.30    2.76
  10   8   5    2.81    1.60
 -10  -8   6   10.95    2.94
 -10  -8   6   12.17    2.03
 -10   8  -6    9.28    2.08
 -10  -8   6    9.58    1.43
  10   8   6   12.41    1.57
 -10  -8   6    8.67    2.33
 -10  -8   7    6.26    1.67
 -10   8  -8    4.10    0.93
 -10   9   8    1.59    0.88
  10  -9   8    1.63    1.00
  10  -9   7    7.26    1.60
 -10   9   6    2.89    1.37
  10  -9   6    3.27    1.88
 -10   9   5    4.97    1.29
  10  -9   5    4.56    1.99
  10  -9   5    6.33    2.87
 -10   9   5    3.55    1.57
  10   9  -5    3.62    2.03
 -10   9   5    5.01    1.32
 -10   9   4   37.19    2.61
 -10   9   4   40.98    2.42
 -10   9   4   43.11    2.38
  10   9  -4   37.78    3.06
 -10   9   4   38.00    2.54
 -10   9   4   39.76    2.80
 -10   9   3    9.91    1.82
 -10   9   3    8.19    1.25
 -10   9   3    6.80    1.11
 -10   9   3    8.33    2.29
  10   9  -3    7.71    1.83
 -10   9   3    7.50    1.58
 -10   9   3    8.41    1.47
 -10   9   3    9.14    1.14
 -10   9   2   18.26    1.78
  10   9  -2   16.55    1.96
 -10   9   2   25.29    2.02
 -10   9   2   22.02    2.40
 -10   9   2   20.38    1.59
  10   9  -1   27.40    2.13
  10   9  -1   24.07    1.70
 -10   9   1   30.05    2.44
  10   9   0   10.23    1.65
 -10   9   0   10.48    1.71
 -10   9  -1   32.13    2.21
 -10   9  -1   28.20    1.74
 -10   9  -2   21.39    1.56
  10   9   2   17.54    1.75
 -10   9  -2   20.40    1.87
  10   9   2   16.19    1.67
 -10   9  -2   22.81    1.45
  10   9   2   17.68    2.23
  10   9   3    7.11    1.53
  10   9   3    7.76    2.13
 -10   9  -3    7.52    1.60
 -10   9  -3    6.13    1.20
 -10   9  -3    7.59    1.16
 -10   9  -4   39.67    2.89
  10   9   4   31.20    2.62
 -10  -9   4   32.86    3.16
  10   9   4   41.25    2.60
 -10  -9   5    2.83    2.93
  10   9   5    1.66    1.53
  10   9   5    4.45    1.51
 -10  -9   5    0.86    1.99
 -10   9  -5    4.21    1.89
 -10  -9   5    5.51    2.18
  10   9   6    4.23    1.41
 -10  -9   6    5.26    1.96
 -10   9  -7    5.13    1.27
 -10  -9   7    9.32    1.69
 -10   9  -8    2.18    0.85
  10   9   8    1.85    0.97
 -10  10   8    0.90    0.77
  10 -10   8    1.34    0.84
  10 -10   7    7.14    1.51
 -10  10   6    1.12    1.22
  10 -10   6    1.62    1.80
 -10  10   5   75.51    3.97
  10 -10   5   64.01    4.22
  10 -10   5   70.48    5.28
 -10  10   5   63.68    4.16
  10  10  -5   77.87    4.60
 -10  10   5   73.52    3.85
 -10  10   4   14.73    1.90
 -10  10   4   17.06    1.50
 -10  10   4   14.29    1.61
  10  10  -4   14.80    2.20
  10  10  -3   56.19    3.41
 -10  10   3   50.48    3.13
 -10  10   3   51.40    3.84
 -10  10   3   50.01    2.74
 -10  10   3   45.36    2.83
 -10  10   3   48.88    2.91
 -10  10   2   26.00    1.91
  10  10  -2   30.03    2.38
 -10  10   2   24.64    2.09
 -10  10   2   26.06    1.95
 -10  10   2   29.88    2.33
  10  10  -2   27.17    1.85
 -10  10   2   29.44    2.81
 -10  10   1   19.99    1.61
  10  10  -1   23.11    1.58
  10  10  -1   22.17    2.04
 -10  10   1   18.42    1.73
 -10  10   1   17.89    2.27
 -10  10   1   20.65    1.87
 -10  10   0   24.46    2.35
 -10  10   0   26.08    1.96
 -10  10  -1   18.48    1.45
 -10  10  -1   18.77    1.94
  10  10   1   18.13    1.75
 -10  10  -1   22.06    1.65
 -10  10  -1   18.19    1.68
  10  10   1   22.56    2.29
  10  10   2   30.06    1.97
 -10  10  -2   29.55    2.32
  10  10   2   28.55    2.09
 -10  10  -2   28.03    1.83
 -10  10  -2   26.14    2.02
  10  10   2   33.05    2.73
 -10  10  -2   28.29    1.97
  10  10   2   28.91    2.14
  10  10   3   52.90    3.16
 -10  10  -3   52.26    3.34
 -10  10  -3   54.05    3.01
  10  10   3   51.31    3.79
 -10  10  -3   47.81    2.97
 -10  10  -4   17.33    1.69
 -10  10  -4   15.32    2.08
 -10 -10   4   12.74    2.46
  10  10   4   15.56    1.85
  10  10   5   62.87    4.19
 -10 -10   5   74.69    4.28
  10  10   5   73.10    3.99
 -10 -10   5   67.77    4.75
 -10  10  -5   65.84    4.37
 -10 -10   5   82.29    5.46
 -10  10  -6    1.53    1.29
 -10 -10   6    4.54    1.89
 -10  10  -7    3.75    1.16
 -10 -10   7    8.82    1.61
 -10  10  -8    0.57    0.77
  10  10   8    1.34    0.89
  10 -11   7    4.05    1.34
 -10  11   6   12.99    1.40
  10 -11   6   10.80    1.92
 -10  11   5   12.85    1.40
 -10  11   5   11.86    1.50
  10 -11   5    9.13    3.09
  10  11  -5    8.50    2.09
  10 -11   5    7.46    2.15
 -10  11   4    3.56    1.15
  10  11  -4    2.55    1.86
 -10  11   4    2.78    1.07
 -10  11   3  153.42    7.75
 -10  11   3  157.01    7.95
 -10  11   3  165.48    8.78
  10  11  -3  156.91    8.33
 -10  11   3  170.92    8.12
  10  11  -3  159.50    7.87
 -10  11   3  159.15    7.97
 -10  11   2    3.44    1.21
 -10  11   2    3.20    0.90
 -10  11   2    1.83    1.48
  10  11  -2    0.43    1.13
  10  11  -2    1.99    1.61
 -10  11   2    4.78    2.18
 -10  11   2    2.05    1.18
 -10  11   1   15.61    1.65
  10  11  -1   14.76    1.43
  10  11  -1   16.09    2.01
 -10  11   1   16.78    2.33
 -10  11   1   17.43    1.51
 -10  11   1   18.24    1.78
  10  11   0   21.86    1.86
 -10  11   0   23.34    1.92
  10  11   0   17.78    2.20
 -10  11   0   23.43    2.27
  10  11   0   24.37    1.83
 -10  11  -1   14.71    1.65
 -10  11  -1   18.61    1.61
  10  11   1   13.28    1.74
 -10  11  -1   17.06    1.95
 -10  11  -1   17.39    1.43
  10  11   1   16.86    2.26
  10  11   1   16.39    1.61
 -10  11  -2    2.06    1.19
 -10  11  -2    2.14    1.22
  10  11   2    2.36    1.45
  10  11   2    2.30    1.46
 -10  11  -2    1.86    1.04
 -10  11  -2    3.47    1.55
  10  11   2    4.16    2.01
  10  11   2    2.37    1.27
  10  11   3  140.59    8.45
 -10  11  -3  170.71    7.86
 -10  11  -3  150.25    7.86
 -10  11  -3  163.93    7.75
  10  11   3  154.12    7.73
  10  11   3  157.63    7.96
 -10  11  -3  149.43    8.15
  10  11   3  154.69    7.92
 -10 -11   4    4.16    2.24
 -10  11  -4    3.33    1.36
 -10  11  -4    2.48    1.77
  10  11   4    4.52    1.58
  10  11   5    8.27    1.63
 -10  11  -5    6.83    1.42
 -10  11  -5    9.43    1.93
 -10 -11   5    4.79    2.11
 -10 -11   5    6.44    3.03
 -10 -11   5    7.71    2.32
 -10  11  -6   10.48    1.47
 -10 -11   6   10.58    1.95
 -10  11  -7    2.76    1.09
 -10  11  -8    1.74    0.71
  10  11   8    3.64    0.79
 -10  12   7    4.80    0.91
  10  12  -7    2.35    0.96
  10 -12   7    5.10    1.27
 -10  12   6    5.15    1.11
  10  12  -6    1.99    1.20
  10 -12   6    3.72    1.72
  10 -12   5    7.52    2.08
 -10  12   5    9.77    1.45
 -10  12   5   11.47    1.31
  10  12  -4    4.15    1.88
 -10  12   4    4.31    1.12
  10  12  -4    3.41    1.33
 -10  12   4    5.04    1.13
 -10  12   3   54.05    3.34
 -10  12   3   56.09    3.09
  10  12  -3   60.02    3.87
 -10  12   3   55.35    3.62
 -10  12   3   60.02    4.48
  10  12  -3   64.35    3.30
 -10  12   3   57.96    3.38
 -10  12   2   14.30    1.62
  10  12  -2   17.17    1.52
 -10  12   2   10.33    1.81
 -10  12   2   13.21    1.54
  10  12  -2   14.26    2.04
 -10  12   2   15.90    2.62
 -10  12   1    3.86    1.38
  10  12  -1    4.62    1.74
 -10  12   1    3.94    2.02
  10  12  -1    2.89    1.23
 -10  12   1    3.29    1.16
  10  12   0    3.29    1.86
 -10  12   0    1.54    1.79
  10  12   0    4.55    1.40
 -10  12   0    2.37    1.36
 -10  12   0    2.72    1.43
 -10  12  -1    4.40    1.36
 -10  12  -1    3.50    1.38
  10  12   1    4.28    1.49
 -10  12  -1    4.87    1.74
  10  12   1    4.70    1.96
  10  12   1    3.37    1.39
 -10  12  -1    3.42    1.14
 -10  12  -2   10.16    1.54
  10  12   2   16.78    1.83
 -10  12  -2   16.19    1.55
 -10  12  -2   11.48    1.91
  10  12   2   15.11    2.44
 -10  12  -2   12.49    1.41
  10  12   2   14.62    1.77
  10  12   2   14.62    1.61
  10  12   3   62.70    3.24
 -10  12  -3   54.30    3.29
  10  12   3   61.24    3.48
 -10  12  -3   53.33    3.30
  10  12   3   58.70    4.21
 -10  12  -3   53.60    3.17
 -10  12  -3   51.51    3.70
  10  12   3   61.76    3.52
 -10  12  -4    5.72    1.46
 -10  12  -4    4.51    1.75
  10  12   4    4.49    1.39
 -10  12  -4    3.37    1.21
 -10 -12   4    7.43    2.28
  10  12   5    9.65    1.59
 -10  12  -5    9.28    1.54
 -10 -12   5    8.50    2.17
  10  12   5   10.95    1.47
 -10  12  -5    8.60    1.32
 -10  12  -6    2.67    1.22
  10  12   6    2.79    1.16
 -10 -12   6    1.93    1.77
 -10  12  -7    2.64    1.02
  10  12   8    6.54    0.68
 -10  12  -8    3.25    0.60
  10 -13   7    4.44    1.03
 -10  13   7    2.68    0.77
  10 -13   6    7.81    1.60
  10  13  -6    4.92    1.16
 -10  13   6    6.24    1.04
  10 -13   5    1.63    1.85
  10  13  -5    1.56    1.26
 -10  13   5    2.32    1.03
 -10  13   4    5.44    1.18
 -10  13   4    7.46    1.15
  10  13  -4    5.65    1.37
 -10  13   4    6.31    1.38
  10  13  -4    3.73    1.88
 -10  13   3   16.45    1.69
 -10  13   3   17.20    1.38
 -10  13   3   14.42    2.08
  10  13  -3   15.96    1.65
 -10  13   3   20.00    1.74
 -10  13   3   17.04    2.92
  10  13  -3   18.81    2.31
 -10  13   2   92.83    4.85
  10  13  -2   87.54    4.67
  10  13  -2   77.86    5.13
 -10  13   2   92.35    4.91
 -10  13   2   91.86    4.76
 -10  13   2   86.45    5.62
 -10  13   1    2.31    1.39
  10  13  -1    3.80    1.94
 -10  13   1    3.59    2.23
  10  13  -1    3.15    1.29
 -10  13   1    3.83    1.54
 -10  13   1    2.93    1.17
  10  13   0    1.79    2.00
 -10  13   0    5.00    2.03
  10  13   0    1.73    1.37
 -10  13   0    2.23    1.35
 -10  13   0    1.34    1.55
 -10  13  -1    2.35    1.51
 -10  13  -1    3.18    1.39
  10  13   1    3.80    1.50
 -10  13  -1    4.13    1.92
  10  13   1    0.62    2.10
  10  13   1    4.39    1.49
  10  13   1    1.79    1.48
 -10  13  -2   94.52    4.88
  10  13   2   86.49    4.87
 -10  13  -2   94.94    4.85
  10  13   2   88.54    5.56
  10  13   2   90.32    4.71
 -10  13  -2   85.18    5.14
 -10  13  -2   88.38    4.66
  10  13   2   87.49    4.87
 -10  13  -3   16.68    1.65
  10  13   3   17.76    1.94
 -10  13  -3   17.48    1.72
  10  13   3   16.39    1.74
  10  13   3   16.33    2.78
 -10  13  -3   16.01    2.12
 -10  13  -3   14.45    1.55
  10  13   3   14.06    2.01
 -10  13  -4    5.09    1.42
 -10  13  -4    5.62    1.81
  10  13   4    4.67    1.48
 -10  13  -4    5.40    1.25
 -10 -13   4    6.69    2.26
  10  13   5    1.33    1.39
 -10  13  -5   -0.30    1.36
 -10 -13   5   -0.59    1.96
  10  13   5    2.32    1.33
 -10  13  -5    2.16    1.13
 -10  13  -6    5.26    1.25
  10  13   6    3.70    1.12
 -10  13  -7    1.05    0.94
  10 -14   6    2.84    1.37
 -10  14   6    3.58    0.89
  10  14  -6    3.11    1.03
 -10  14   5    1.07    0.95
  10 -14   5   -0.59    1.77
  10  14  -5    2.06    1.18
  10  14  -4   12.62    1.52
 -10  14   4   15.47    1.60
 -10  14   4   14.32    1.28
 -10  14   4   12.68    1.42
 -10  14   3    4.44    2.48
  10  14  -3    8.01    1.95
 -10  14   3    6.15    1.03
  10  14  -3    6.65    1.38
 -10  14   3    2.68    1.74
 -10  14   3    6.37    1.33
 -10  14   3    5.07    2.01
 -10  14   3    5.52    1.33
  10  14  -2   35.36    2.36
 -10  14   2   37.57    2.65
  10  14  -2   36.53    2.99
 -10  14   2   32.00    2.46
 -10  14   2   34.80    2.34
 -10  14   2   34.66    3.34
 -10  14   1    5.43    1.64
  10  14  -1    4.30    2.04
 -10  14   1    2.78    2.21
 -10  14   1    2.59    1.19
 -10  14   1    3.55    1.44
  10  14   0    3.35    1.37
 -10  14   0    4.48    1.50
  10  14   0    2.98    2.05
 -10  14   0    3.67    2.16
 -10  14  -1    3.61    1.95
  10  14   1    3.83    2.28
  10  14   1    4.00    1.52
  10  14   1    5.11    1.62
 -10  14  -1    2.26    1.59
 -10  14  -1    4.21    1.50
  10  14   2   38.98    3.40
 -10  14  -2   31.65    2.90
 -10  14  -2   41.59    2.57
  10  14   2   36.10    2.61
 -10  14  -2   33.98    2.31
  10  14   2   35.94    2.63
  10  14   2   38.22    2.48
 -10  14  -2   34.36    2.49
 -10  14  -3    3.76    1.25
 -10  14  -3    5.20    1.80
  10  14   3    6.12    2.51
 -10  14  -3    3.47    1.44
 -10  14  -3    6.90    1.30
  10  14   3    4.90    1.47
  10  14   3    5.74    1.60
 -10  14  -4   14.37    1.47
  10  14   4   12.88    1.63
 -10  14  -4   14.22    1.66
  10  14   4   13.64    1.74
 -10 -14   5    0.50    1.84
 -10  14  -5    2.20    1.08
 -10  14  -5    2.85    1.33
  10  14   6    1.61    1.00
 -10  14  -6    2.91    1.08
 -10  14  -7    8.30    1.02
  10  14   7   14.68    1.05
  10 -15   6    4.39    1.18
  10 -15   5    1.00    1.61
  10  15  -5    2.31    1.08
  10  15  -4    5.80    1.30
 -10  15   3    3.25    1.26
 -10  15   3    5.22    1.83
 -10  15   3    3.72    1.24
  10  15  -3    2.61    1.33
 -10  15   2    5.85    2.41
  10  15  -2    7.14    2.15
 -10  15   2    5.71    1.45
 -10  15   2    6.64    1.94
 -10  15   2    6.98    1.31
 -10  15   2    4.29    1.69
  10  15  -2    8.53    1.44
  10  15  -1   16.43    2.44
 -10  15   1   18.54    2.66
 -10  15   1   17.75    1.93
  10  15   0   10.36    2.32
 -10  15   0    7.42    2.19
 -10  15   0   10.56    1.65
  10  15   0    8.75    1.49
 -10  15  -1   14.84    2.35
  10  15   1   19.27    2.77
 -10  15  -1   19.79    1.92
  10  15   1   18.45    1.98
  10  15   1   17.51    1.85
  10  15   2    6.66    1.73
  10  15   2    5.09    1.56
  10  15   2    5.95    2.38
 -10  15  -2    4.44    1.92
 -10  15  -2    7.36    1.45
  10  15   2    7.27    1.58
 -10  15  -2    5.19    1.62
  10  15   3    4.47    1.48
  10  15   3    3.74    1.50
 -10  15  -3    4.87    1.48
 -10  15  -3    3.43    1.23
 -10  15  -3    3.23    1.22
 -10  15  -4    4.12    1.17
 -10  15  -4    5.71    1.43
  10  15   4    4.92    1.40
 -10  15  -5    1.86    1.27
 -10  15  -6    0.52    1.03
  10  15   6    0.61    0.84
 -10  15  -7    0.67    0.64
  10 -16   5    0.50    1.42
  10  16  -5    3.24    1.01
  10  16  -4    2.56    1.16
 -10  16   3   10.93    1.44
  10  16  -3   12.29    1.49
 -10  16   2    6.06    1.38
 -10  16   2    5.49    1.64
 -10  16   2    7.31    1.92
 -10  16   1   13.13    1.79
 -10  16   1   14.82    2.01
  10  16   0   19.99    1.69
 -10  16   0   16.03    1.88
  10  16   1   17.20    1.76
 -10  16  -1   17.24    1.83
  10  16   1   17.80    1.93
  10  16   2    8.95    1.56
 -10  16  -2    4.63    1.39
  10  16   2    4.87    1.68
 -10  16  -3   11.57    1.69
  10  16   3   13.70    1.62
 -10  16  -3   11.30    1.41
  10  16   3   11.75    1.63
 -10  16  -4    1.90    1.33
  10  16   4    2.10    1.33
 -10  16  -5    1.38    1.16
 -10  16  -6   -0.10    0.93
  10  16   6    0.69    0.68
  10 -17   5    1.22    1.13
 -10  17   3    3.66    1.14
 -10  17   2    2.19    1.51
 -10  17   2    4.27    1.28
 -10  17   2    3.19    1.67
 -10  17   1    3.25    1.47
 -10  17   1    6.00    1.74
 -10  17   0   37.56    2.59
 -10  17   0   40.94    2.70
  10  17   0   38.48    2.57
 -10  17   0   33.57    2.50
  10  17   1    6.78    1.62
 -10  17  -1    5.04    1.44
  10  17   2    2.85    1.55
 -10  17  -2    2.24    1.23
 -10  17  -3    5.02    1.15
 -10  17  -4    3.87    1.33
  10  17   4    1.52    1.06
 -10  17  -5   -0.18    1.05
 -10  17  -6    2.46    0.70
  10  17   6    3.23    0.51
  10 -18   4   -1.97    1.28
 -10  18   3    1.39    0.96
 -10  18   2    3.75    1.19
 -10  18   2    4.23    1.53
 -10  18   2    2.36    1.39
 -10  18   1   10.14    1.65
 -10  18   1    6.96    1.53
  10  18  -1   10.96    1.55
 -10  18   0    5.75    1.38
  10  18   0    5.86    1.45
 -10  18   0    4.77    1.39
 -10  18   0    4.76    1.53
  10  18   1    7.45    1.16
 -10  18  -1    9.01    1.38
  10  18   1    6.28    1.54
 -10  18  -1    8.13    1.44
 -10  18  -2    4.26    1.16
  10  18   2    2.96    1.08
  10  18   3    3.02    1.03
  10  18   4   -0.35    0.88
  10  18   5    7.58    0.82
 -10  18  -5    8.67    1.00
 -10  19   2   19.36    1.50
  10  19  -2   18.24    1.57
 -10  19   1    8.76    1.53
  10  19  -1    9.29    1.35
 -10  19   0    4.83    1.18
  10  19   0    5.33    1.31
 -10  19   0    4.29    1.47
 -10  19  -1    7.99    1.24
  10  19   1    9.07    1.39
  10  19   1    6.10    0.93
 -10  19  -1   11.05    1.51
 -10  19  -2   18.42    1.45
 -10  19  -2   20.26    1.68
  10  19   2   14.75    1.30
  10  19   3    1.57    0.82
  10  19   4    2.81    0.69
 -10  20   2    2.25    0.86
 -10  20   1    1.54    1.20
 -10  20   0    2.68    1.22
  10  20   0    1.30    0.74
 -10  20   0    2.53    0.99
 -10  20  -1    0.19    1.15
 -10  20  -1    2.35    0.93
 -10  20  -2    1.39    1.05
  10  20   2    2.56    0.61
 -10  20  -3    2.43    0.87
  10  20   3    0.36    0.54
  10  20   4    1.55    0.43
 -10  20  -4    1.60    0.58
 -10  21   2    2.72    0.59
 -10  21   0    0.48    0.75
  10  21   1    5.09    0.68
 -10  21  -1    6.68    0.98
  10  21   2    2.76    0.58
 -10  21  -2    2.81    0.79
 -11   0   0    4.28    1.22
 -11   0   1   -0.24    1.44
 -11   0   1    0.76    0.31
 -11   0   2    1.62    1.47
  11   0   2    1.38    1.08
 -11   0   2    3.89    1.26
 -11   0   3   12.65    1.87
  11   0   3    8.41    1.75
 -11   0   3   10.45    1.73
  11   0   4    0.89    2.40
  11   0   4    3.10    1.83
 -11   0   4    2.89    1.84
 -11   0   5    2.83    1.25
  11   0   5    2.67    2.58
 -11   0   5    4.03    1.34
 -11   0   5    4.44    1.55
 -11   0   5    3.69    1.54
  11   0   5    3.19    1.98
 -11   0   5    3.23    2.02
  11   0   6   -0.22    1.38
 -11   0   6   -0.07    1.35
  11   0   6    0.80    2.79
 -11   0   6    0.95    1.37
 -11   0   6    1.15    1.61
 -11   0   6   -0.83    1.51
  11   0   6   -2.37    2.08
 -11   0   6   -0.54    2.06
 -11   0   7    2.32    1.89
 -11   0   7    1.62    1.48
  11   0   7   -1.83    1.37
 -11   0   7   -0.19    1.34
 -11   0   7    0.64    1.39
 -11   0   7    1.26    1.67
 -11   0   8    2.82    1.15
  11   0   8    2.29    1.15
 -11   0   8    2.84    1.17
 -11   0   8    2.03    1.33
 -11   0   9    2.43    0.89
 -11   1   9    6.51    0.96
  11  -1   8    3.50    1.19
 -11   1   8    2.12    1.12
 -11   1   8    5.01    1.33
 -11   1   8    4.89    1.23
 -11   1   7    2.92    1.84
 -11   1   7    3.10    1.31
  11  -1   7    1.58    1.42
 -11   1   7    2.88    1.52
 -11   1   7    2.78    1.61
 -11   1   7    4.89    1.43
 -11   1   6    5.21    1.44
  11  -1   6    7.74    1.58
  11  -1   6    5.51    3.11
 -11   1   6   10.77    1.57
 -11   1   6    7.53    2.04
  11  -1   6    6.74    2.36
 -11   1   6    7.08    1.60
 -11   1   5    1.55    1.18
 -11   1   5    1.04    1.28
  11  -1   5    3.82    2.72
 -11   1   5    0.78    1.79
  11  -1   5   -0.12    2.06
  11  -1   4    3.43    2.57
  11  -1   4    4.02    1.90
 -11   1   4    2.78    1.70
 -11   1   3   48.46    3.35
 -11   1   3   48.59    3.12
  11  -1   3   51.13    3.19
 -11   1   2  129.95    7.14
 -11   1   2  144.57    6.84
  11  -1   2  137.08    6.87
 -11   1   1   34.48    1.80
  11   1  -1   34.85    1.83
 -11  -1   0    3.46    1.25
 -11  -1   1   45.12    2.59
 -11  -1   1   35.44    1.92
 -11  -1   2  143.30    7.11
  11   1   2  131.37    6.65
 -11  -1   2  139.90    6.80
 -11  -1   3   49.60    3.28
  11   1   3   44.64    3.37
  11   1   3   44.22    2.90
 -11  -1   3   47.31    3.12
  11   1   4    4.54    2.33
 -11  -1   4    3.95    1.84
  11   1   4    1.86    1.65
 -11  -1   5    3.13    1.27
 -11  -1   5    1.13    1.81
  11   1   5   -0.15    2.53
 -11  -1   5    1.35    1.29
 -11  -1   5    2.77    1.54
 -11  -1   5    0.74    1.49
  11   1   5    2.77    1.83
 -11  -1   5    1.49    2.04
  11   1   6    3.74    1.41
 -11  -1   6    5.88    1.49
  11   1   6    5.69    2.82
 -11  -1   6    7.90    1.47
 -11  -1   6    6.81    1.70
 -11  -1   6    5.25    1.61
  11   1   6    8.82    2.09
 -11  -1   6    6.50    2.35
 -11  -1   7    4.41    1.57
 -11  -1   7    4.21    1.44
 -11  -1   7    3.44    1.97
  11   1   7    3.67    1.33
 -11  -1   7    2.05    1.43
 -11  -1   8    3.68    1.19
 -11  -1   8    4.11    1.19
 -11  -1   8    3.73    1.36
 -11  -1   9    5.84    0.90
 -11   2   9    4.81    0.90
  11  -2   8    4.17    1.20
 -11   2   8    5.13    1.22
 -11   2   8    2.70    1.26
 -11   2   7    4.16    1.27
  11  -2   7    4.51    1.49
 -11   2   7    5.92    1.65
 -11   2   7    6.29    1.46
 -11   2   6    5.09    1.37
  11  -2   6    6.64    1.63
  11  -2   6    6.28    3.31
 -11   2   6    9.56    1.97
  11  -2   6    5.92    2.40
 -11   2   6    6.27    1.57
 -11   2   5    2.17    1.22
 -11   2   5    3.39    1.35
  11  -2   5    2.41    2.15
 -11   2   5    2.25    1.73
 -11   2   5    3.14    1.48
 -11   2   5    3.97    1.60
  11  -2   5    2.92    2.80
 -11   2   4    5.13    1.60
  11  -2   4    4.99    2.02
 -11   2   3   11.38    1.57
  11  -2   3   15.56    1.95
 -11   2   2   88.81    4.47
  11  -2   2   86.92    4.64
  11   2  -1   98.06    4.94
  11  -2   1   94.49    4.98
 -11  -2   0   16.69    1.61
 -11  -2   1  132.35    5.72
 -11  -2   1  122.56    5.33
 -11  -2   2   99.91    5.15
  11   2   2   93.20    5.00
  11   2   2   91.01    4.67
 -11  -2   2   93.98    4.91
  11   2   3   15.23    2.23
 -11  -2   3   14.50    1.95
  11   2   3   14.79    1.65
 -11  -2   3   16.53    2.05
  11   2   4    4.04    2.18
  11   2   4    1.80    1.55
 -11  -2   4    3.97    1.92
 -11  -2   5    4.59    1.35
 -11  -2   5    3.82    1.56
 -11  -2   5    1.76    1.51
 -11  -2   5    3.54    1.29
 -11  -2   5    4.20    1.95
  11   2   5    4.13    2.48
 -11  -2   5    2.85    2.15
  11   2   5    3.87    1.76
  11   2   6    4.66    1.35
 -11  -2   6    5.92    1.52
 -11  -2   6    6.73    1.65
 -11  -2   6    4.37    1.66
 -11  -2   6    7.39    1.40
  11   2   6   10.95    2.76
  11   2   6    7.93    2.00
 -11  -2   6    8.60    2.38
 -11  -2   7    7.89    1.58
 -11  -2   7    5.93    1.45
 -11  -2   7    5.09    1.51
  11   2   7    3.30    1.27
 -11  -2   8    2.56    1.36
 -11  -2   8    2.69    1.12
 -11  -2   9    5.71    0.86
 -11   3   9    4.29    0.87
 -11   3   8    1.38    1.22
  11  -3   8   -0.88    1.20
  11  -3   7    5.87    1.59
 -11   3   7    6.20    1.29
 -11   3   7    9.66    1.63
 -11   3   6    2.07    1.79
  11  -3   6   -0.23    2.39
 -11   3   6    1.07    1.26
  11  -3   6    5.22    1.59
 -11   3   6    1.50    1.39
 -11   3   6    2.73    1.52
  11  -3   6    5.76    3.20
 -11   3   6   -0.48    1.69
 -11   3   5    4.21    1.62
 -11   3   5    1.49    1.66
  11  -3   5    5.52    2.29
 -11   3   5    1.40    1.29
 -11   3   5    3.34    1.49
 -11   3   5    4.78    1.60
  11  -3   5    2.34    2.92
 -11   3   5    1.43    1.13
 -11   3   4    4.01    1.51
  11  -3   4    7.76    2.10
 -11   3   3   42.74    2.63
  11  -3   3   39.95    3.06
 -11   3   2  103.94    4.79
 -11   3   2   91.25    4.86
  11  -3   2   90.00    5.11
  11   3  -1   21.24    1.37
  11   3   0    3.70    0.72
 -11   3   0    3.25    0.84
  11   3   1   16.44    1.33
 -11  -3   1   19.88    1.88
 -11   3  -1   21.75    1.29
 -11  -3   2   80.46    4.55
  11   3   2   73.63    4.45
 -11  -3   2   87.26    4.69
 -11   3  -2   85.91    4.31
  11   3   2   89.55    4.28
  11   3   3   34.03    2.36
 -11  -3   3   39.93    2.82
  11   3   3   31.42    2.68
 -11  -3   3   39.85    2.83
  11   3   4    4.44    1.56
 -11  -3   4    7.80    2.09
  11   3   4    2.69    1.99
 -11  -3   5    3.97    1.37
  11   3   5    0.63    1.62
 -11  -3   5    2.86    2.22
 -11  -3   5    1.73    1.21
 -11  -3   5    1.73    1.55
 -11  -3   5    0.29    1.82
  11   3   5    2.78    2.25
 -11  -3   6    2.32    1.49
  11   3   6    0.13    1.24
 -11  -3   6    3.24    2.36
  11   3   6    0.42    1.73
 -11  -3   6   -0.10    1.56
 -11  -3   6    1.62    1.55
  11   3   6    2.50    2.38
 -11  -3   7    6.47    1.47
 -11  -3   7    8.20    1.57
 -11  -3   7    6.30    1.57
 -11  -3   8    1.76    1.33
 -11  -3   8    0.67    1.06
 -11  -3   9    3.30    0.74
 -11   4   9   11.29    1.02
 -11   4   8    2.19    1.20
  11  -4   8    2.16    1.20
  11  -4   7    5.41    1.58
 -11   4   7    3.64    1.37
 -11   4   7    3.87    1.47
 -11   4   6   18.50    1.66
  11  -4   6   21.40    1.98
  11  -4   6   22.29    2.99
 -11   4   6   14.35    2.15
 -11   4   6   20.59    1.92
  11  -4   6   19.33    3.81
 -11   4   6   19.11    1.96
 -11   4   5    6.00    1.61
 -11   4   5    5.49    1.21
 -11   4   5    5.76    1.49
  11  -4   5    8.46    3.33
 -11   4   5    7.66    1.76
  11  -4   5    6.70    2.35
 -11   4   5    5.09    1.41
 -11   4   4   91.77    4.49
 -11   4   4   96.31    4.50
 -11   4   4   90.84    4.70
  11  -4   4   93.63    5.16
 -11   4   3  122.45    6.22
 -11   4   3  136.12    6.52
  11  -4   3  137.24    6.88
 -11   4   2  218.69   10.89
  11   4  -2  251.33   11.09
 -11   4   2  223.93   10.99
 -11   4   1   48.68    2.65
 -11   4   1   46.31    2.89
  11   4  -1   54.43    2.70
  11   4   0    1.77    0.86
 -11   4   0    2.00    0.96
  11   4   1   48.66    2.81
 -11   4  -1   52.82    2.74
  11   4   2  253.56   11.86
 -11  -4   2  260.62   12.23
  11   4   2  242.26   11.85
 -11   4  -2  235.12   11.87
  11   4   3  149.16    7.34
 -11  -4   3  142.66    7.65
 -11  -4   3  150.49    7.70
  11   4   3  141.09    7.41
  11   4   4   99.97    5.36
 -11  -4   4  102.75    5.82
  11   4   4   95.85    5.52
 -11  -4   5    4.88    1.61
 -11  -4   5    7.77    1.59
  11   4   5    5.12    1.71
 -11  -4   5   11.44    2.39
 -11  -4   5    6.99    1.27
 -11  -4   5    9.86    2.11
  11   4   5    8.09    2.14
  11   4   5    6.01    1.33
 -11  -4   6   19.11    1.98
  11   4   6   18.71    2.27
 -11  -4   6   20.38    2.91
 -11  -4   6   20.57    2.04
 -11  -4   6   22.24    2.04
 -11  -4   6   24.39    2.69
 -11  -4   7    5.97    1.46
 -11  -4   7    3.29    1.46
 -11  -4   7    5.10    1.56
 -11  -4   8    2.86    1.29
 -11  -4   8    4.32    1.06
 -11   5   9    2.72    0.74
  11  -5   8    0.92    1.20
 -11   5   8    3.76    1.15
  11  -5   7    5.82    1.59
 -11   5   7    3.02    1.40
  11  -5   6   18.42    2.00
 -11   5   6   15.91    1.78
  11  -5   6   21.18    3.77
 -11   5   6   19.83    1.78
 -11   5   6   15.82    2.07
 -11   5   5    8.76    1.75
  11  -5   5   12.91    2.61
 -11   5   5    7.99    1.68
 -11   5   5    9.74    1.53
 -11   5   5    9.02    1.54
  11  -5   5    6.45    3.35
 -11   5   5    9.53    1.48
 -11   5   4    9.29    1.55
 -11   5   4   10.85    1.41
 -11   5   4    9.42    1.47
 -11   5   4   10.01    1.62
  11  -5   4   10.56    2.43
 -11   5   4    8.73    1.43
 -11   5   4   11.11    1.51
  11   5  -3   64.44    3.56
 -11   5   3   56.44    3.03
 -11   5   3   60.48    3.37
  11  -5   3   61.71    3.95
  11   5  -2   14.51    1.53
 -11   5   2   11.50    1.96
 -11   5   2   16.20    1.15
 -11   5   2   12.03    1.32
 -11   5   1   54.99    3.32
  11   5  -1   58.85    3.12
  11   5   0    5.06    1.07
 -11   5   0    6.48    1.17
  11   5   1   50.54    3.02
 -11   5  -1   56.23    2.94
 -11   5  -2   15.44    1.44
  11   5   2   11.93    1.26
  11   5   2   11.04    1.69
 -11  -5   3   49.62    3.74
  11   5   3   60.48    3.27
 -11  -5   3   53.93    3.66
 -11   5  -3   57.96    3.33
  11   5   4   11.30    1.66
 -11  -5   4   10.61    2.42
 -11  -5   4   10.98    1.54
  11   5   4   10.70    1.47
 -11  -5   5    9.35    2.21
 -11  -5   5    7.42    1.27
  11   5   5    7.98    1.75
 -11  -5   5   12.42    2.58
 -11  -5   5    9.49    1.70
 -11  -5   5   10.37    1.69
  11   5   5    9.01    1.52
 -11  -5   6   19.51    2.01
 -11  -5   6   18.62    2.89
 -11  -5   6   17.89    1.95
 -11  -5   6   17.89    1.90
 -11  -5   6   17.67    2.54
 -11  -5   7    6.43    1.58
 -11  -5   7    4.83    1.41
 -11  -5   7    5.10    1.37
 -11  -5   8    2.75    0.93
 -11  -5   8    2.77    1.26
 -11   6   9    0.23    0.63
 -11   6   8    1.38    1.08
  11  -6   8    1.99    1.13
 -11   6   7    2.41    1.36
  11  -6   7    5.03    1.53
  11  -6   6    5.23    1.80
 -11   6   6    3.53    1.30
 -11   6   6    0.96    1.58
 -11   6   6    4.41    1.35
  11   6  -6    4.13    2.17
 -11   6   5  180.47    8.95
 -11   6   5  178.49    9.04
  11  -6   5  178.22    9.04
  11   6  -5  187.99    9.53
 -11   6   5  189.80    8.97
 -11   6   5  169.85    9.22
  11  -6   5  180.97    9.85
 -11   6   5  186.23    9.03
 -11   6   5  176.52    8.94
 -11   6   4   31.88    2.46
 -11   6   4   36.18    2.33
 -11   6   4   38.51    2.36
 -11   6   4   35.47    2.51
  11  -6   4   36.73    3.42
  11   6  -4   35.70    2.81
 -11   6   4   37.14    2.33
 -11   6   4   37.53    2.43
 -11   6   4   36.24    2.30
 -11   6   3    7.91    1.33
  11   6  -3    7.88    1.58
 -11   6   3    6.57    0.84
 -11   6   2    8.70    1.85
  11   6  -2   10.23    1.42
 -11   6   2    9.25    1.16
 -11   6   2    8.77    1.27
  11   6  -1    9.67    1.29
 -11   6   1   10.33    1.65
  11   6   0  108.84    5.30
 -11   6   0   98.91    5.32
  11   6   1   12.74    1.50
 -11   6  -1    7.52    1.25
  11   6   2   13.81    1.76
 -11   6  -2    9.51    1.40
 -11  -6   3    8.26    1.91
 -11   6  -3    8.95    1.48
  11   6   3    7.99    1.41
 -11  -6   4   40.20    2.46
  11   6   4   35.18    2.44
  11   6   4   41.96    2.65
 -11  -6   4   33.74    2.51
 -11   6  -4   34.93    2.67
 -11  -6   4   37.36    3.40
  11   6   5  190.15    9.37
  11   6   5  203.04    9.67
 -11  -6   5  187.02    9.39
 -11  -6   5  188.54   10.06
 -11  -6   5  189.53    9.38
 -11  -6   5  201.11   10.27
 -11   6  -5  165.47    9.68
  11   6   6    3.42    1.25
 -11  -6   6    5.25    2.56
 -11  -6   6    3.59    1.74
 -11   6  -6    3.39    1.90
 -11  -6   6    1.77    1.48
 -11  -6   6    1.97    2.08
 -11  -6   6    3.35    1.49
 -11  -6   7    4.21    1.56
 -11  -6   7    3.86    1.22
 -11  -6   7    2.54    1.28
 -11  -6   8    1.69    1.16
 -11   6  -8    1.34    0.89
 -11   7   9    1.51    0.55
 -11   7   8    1.73    1.02
  11  -7   8    0.30    1.05
  11  -7   7    7.48    1.63
 -11   7   6    1.77    1.52
  11  -7   6    6.38    1.83
 -11   7   6    4.22    1.27
  11   7  -6    3.49    2.18
 -11   7   5  153.55    7.15
 -11   7   5  124.57    7.18
 -11   7   5  140.58    7.45
  11  -7   5  134.06    7.27
  11  -7   5  155.68    8.23
 -11   7   5  142.98    7.11
 -11   7   5  151.38    7.14
  11   7  -5  137.90    7.71
 -11   7   4   12.15    1.75
 -11   7   4   10.79    1.34
 -11   7   4   15.13    1.46
 -11   7   4   13.96    1.51
  11   7  -4   14.09    2.02
 -11   7   4   15.47    1.41
 -11   7   4   14.14    1.58
 -11   7   4   11.83    1.45
 -11   7   4   13.49    1.73
  11  -7   4   12.96    2.75
 -11   7   3   39.63    2.61
 -11   7   3   34.17    2.18
  11   7  -3   37.23    2.65
 -11   7   3   33.63    2.38
  11   7  -2   60.63    3.42
 -11   7   2   57.05    3.18
 -11   7   2   58.00    3.67
 -11   7   1   11.17    1.21
 -11   7   1   10.78    1.71
  11   7  -1    8.56    1.37
  11   7   0   47.10    3.00
 -11   7   0   56.35    3.10
 -11   7  -1   11.77    1.02
 -11   7  -1   11.31    1.40
  11   7   1    8.52    1.59
 -11   7  -2   62.72    3.44
  11   7   2   57.12    3.62
 -11  -7   3   29.36    2.83
 -11   7  -3   34.75    2.36
  11   7   3   32.10    2.30
 -11  -7   4   10.22    2.67
  11   7   4   12.32    1.73
 -11   7  -4   13.46    1.82
  11   7   4   11.50    1.61
  11   7   5  137.10    6.54
  11   7   5  115.28    6.70
 -11  -7   5  121.11    6.58
 -11  -7   5  132.30    7.30
 -11  -7   5  120.08    6.45
 -11  -7   5  132.76    7.52
 -11   7  -5  135.03    6.92
  11   7   6    4.44    1.41
 -11  -7   6    4.65    2.66
 -11  -7   6    6.70    1.81
 -11   7  -6    2.55    1.89
 -11  -7   6    2.71    1.41
 -11  -7   6    3.33    2.12
 -11  -7   6    4.49    1.45
 -11  -7   7    4.58    1.14
 -11  -7   7    9.25    1.62
 -11   7  -8    1.66    0.88
 -11  -7   8    2.57    1.03
  11   7   9    1.87    0.65
 -11   8   9    2.65    0.47
 -11   8   8    3.53    0.96
  11  -8   8    3.82    1.00
  11  -8   7    3.94    1.45
 -11   8   6    2.76    1.50
  11  -8   6    6.63    1.86
  11  -8   6    4.76    3.63
 -11   8   5   21.76    1.73
 -11   8   5   20.62    1.93
 -11   8   5   21.13    2.12
  11  -8   5   16.51    2.33
  11   8  -5   22.37    2.59
 -11   8   5   22.35    1.80
  11  -8   5   25.53    3.36
 -11   8   4   82.87    4.10
 -11   8   4   70.84    4.19
 -11   8   4   73.88    4.29
 -11   8   4   76.31    4.17
 -11   8   4   79.05    4.10
 -11   8   4   74.76    4.40
  11  -8   4   80.09    5.26
 -11   8   4   81.92    4.20
  11   8  -4   85.61    4.73
  11   8  -3    8.69    1.74
 -11   8   3   10.16    2.16
 -11   8   3    8.34    1.35
 -11   8   3    8.88    1.16
 -11   8   3    8.61    1.83
 -11   8   2   13.67    2.08
 -11   8   2   12.25    1.54
  11   8  -2   17.92    1.76
 -11   8   1   27.37    2.33
  11   8  -1   29.30    2.11
 -11   8   1   24.31    1.86
  11   8  -1   28.35    1.70
  11   8   0   48.42    2.84
 -11   8   0   40.87    2.87
  11   8   1   29.88    2.24
 -11   8  -1   24.68    1.60
 -11   8  -1   25.50    2.04
 -11   8  -2   12.42    1.61
  11   8   2   15.28    1.48
 -11   8  -2   13.82    1.19
 -11   8  -3    9.00    1.21
 -11   8  -3    9.16    1.55
  11   8   3    8.69    2.09
  11   8   3   10.00    1.48
 -11   8  -3    8.06    1.15
  11   8   3   10.07    1.49
  11   8   4   83.56    4.50
 -11  -8   4   92.16    5.53
 -11   8  -4   74.09    4.68
  11   8   4   80.88    4.61
 -11  -8   4   85.20    5.16
  11   8   5   21.82    1.99
 -11  -8   5   25.24    3.38
 -11  -8   5   20.23    2.27
 -11   8  -5   19.74    2.35
 -11  -8   5   21.34    1.88
 -11  -8   5   20.87    2.75
  11   8   5   22.64    2.16
 -11  -8   6    5.40    2.68
 -11  -8   6    8.46    1.90
  11   8   6    3.78    1.37
 -11  -8   6    2.97    1.28
 -11  -8   6    2.24    1.30
 -11  -8   6    4.27    2.22
 -11   8  -7    2.22    1.16
 -11  -8   7    4.65    1.54
 -11   8  -8    4.62    0.88
 -11   9   8    6.33    0.93
  11  -9   7   13.62    1.63
 -11   9   6    2.69    1.26
  11  -9   6    2.20    1.77
  11  -9   5   35.97    2.89
  11   9  -5   34.08    3.09
 -11   9   5   39.56    2.39
 -11   9   5   35.93    2.68
 -11   9   4  126.71    5.91
 -11   9   4  111.32    6.08
 -11   9   4  116.02    6.05
 -11   9   4  121.91    5.92
 -11   9   4  103.49    6.16
  11   9  -4  111.07    6.46
  11  -9   4  133.67    7.15
 -11   9   4  117.37    6.04
 -11   9   3    1.83    1.00
 -11   9   3    2.29    1.00
 -11   9   3    2.12    1.80
 -11   9   3    2.67    1.14
  11   9  -3   -0.25    1.56
 -11   9   3    0.27    2.09
 -11   9   3    2.04    1.03
 -11   9   2    4.77    1.93
  11   9  -2    3.41    1.55
  11   9  -2    1.72    1.03
 -11   9   2    2.21    1.32
 -11   9   2    3.78    1.61
 -11   9   2    3.35    1.07
 -11   9   1   37.54    2.65
  11   9  -1   31.69    2.01
 -11   9   1   34.96    2.14
  11   9  -1   30.84    2.38
  11   9   0   13.35    1.75
 -11   9   0   13.39    1.79
  11   9   1   30.20    2.53
 -11   9  -1   33.07    1.92
 -11   9  -1   32.20    2.34
 -11   9  -2    3.57    1.08
  11   9   2    4.54    1.85
 -11   9  -2    1.47    1.35
 -11   9  -2    1.88    0.95
  11   9   2    1.96    1.25
  11   9   2    1.29    1.31
 -11   9  -2    2.70    1.09
 -11   9  -3   -0.05    1.41
  11   9   3    1.62    1.93
 -11   9  -3    2.63    1.06
 -11   9  -3    1.47    1.10
 -11   9  -4  113.15    6.02
 -11   9  -4  121.95    5.67
  11   9   4  107.12    5.76
  11   9   4   94.41    5.82
 -11  -9   4  109.97    6.47
 -11  -9   4  101.81    6.71
 -11  -9   5   31.02    2.69
  11   9   5   31.10    2.40
 -11  -9   5   36.41    3.29
 -11   9  -5   34.15    2.78
 -11  -9   5   36.92    3.80
  11   9   6    5.83    1.47
 -11  -9   6    6.86    1.92
 -11   9  -7    9.85    1.30
 -11   9  -8    3.24    0.81
  11   9   8    4.71    0.99
  11 -10   7    2.98    1.33
  11 -10   6    5.87    1.80
 -11  10   6    1.44    1.21
 -11  10   5   19.32    1.67
  11 -10   5   18.13    2.27
  11  10  -5   23.42    2.51
 -11  10   5   15.83    1.93
  11  10  -4    2.32    1.84
 -11  10   4    5.74    1.39
 -11  10   4    5.97    1.48
 -11  10   4    3.55    1.20
 -11  10   3    6.84    1.13
 -11  10   3    5.38    1.14
 -11  10   3    2.69    2.24
  11  10  -3    6.51    1.73
 -11  10   3    6.90    1.88
 -11  10   3    7.96    1.31
 -11  10   2   19.25    1.67
  11  10  -2   19.88    2.13
 -11  10   2   21.19    1.88
 -11  10   2   20.15    2.13
 -11  10   2   20.48    1.70
 -11  10   2   19.14    2.48
  11  10  -2   22.99    1.59
  11  10  -1   11.59    1.23
 -11  10   1    9.91    1.44
 -11  10   1    9.48    1.29
  11  10  -1   13.26    1.74
 -11  10   1    8.97    1.99
 -11  10   1    7.29    1.37
 -11  10   1   12.53    1.67
  11  10   0    3.03    1.58
 -11  10   0    6.34    1.71
 -11  10   0    3.94    1.35
 -11  10  -1    7.26    1.16
  11  10   1   10.73    1.50
 -11  10  -1   10.70    1.38
 -11  10  -1    9.30    1.58
  11  10   1   10.34    1.95
  11  10   1    9.63    1.33
 -11  10  -1    8.50    1.36
  11  10   2   21.33    1.83
 -11  10  -2   23.44    2.03
 -11  10  -2   19.46    1.50
 -11  10  -2   21.70    1.75
  11  10   2   20.71    1.90
 -11  10  -2   21.24    1.75
  11  10   2   22.38    1.71
  11  10   2   22.87    2.46
 -11  10  -3    5.86    1.12
 -11  10  -3    6.46    1.23
 -11  10  -3    6.49    1.61
 -11  10  -3    5.45    1.26
 -11  10  -4    1.83    1.65
 -11 -10   4    4.47    2.22
  11  10   4    4.69    1.58
 -11  10  -4    4.25    1.35
 -11  10  -5   22.57    1.91
 -11 -10   5   24.06    2.41
 -11  10  -5   16.93    2.28
 -11 -10   5   25.75    3.49
 -11 -10   5   22.25    2.81
  11  10   5   24.69    2.06
 -11 -10   6    4.63    1.85
 -11  10  -6    0.97    1.24
 -11  10  -7    3.29    1.11
 -11  10  -8    1.21    0.70
  11  10   8    0.92    0.84
  11  11  -7    0.33    0.97
 -11  11   7    2.02    0.95
  11 -11   7    3.05    1.23
 -11  11   6    5.61    1.21
  11 -11   6    8.83    1.74
 -11  11   5   19.10    1.59
  11 -11   5   17.12    2.19
  11  11  -4   26.88    2.71
 -11  11   4   34.54    2.07
 -11  11   4   33.38    2.07
 -11  11   4   31.02    2.24
 -11  11   4   30.18    2.19
 -11  11   3   45.18    2.79
 -11  11   3   44.41    2.57
 -11  11   3   43.94    3.79
  11  11  -3   44.97    3.27
  11  11  -3   46.40    2.69
 -11  11   3   47.68    2.83
 -11  11   2    4.87    1.33
 -11  11   2    6.53    1.57
  11  11  -2    4.88    1.14
 -11  11   2    8.80    2.27
  11  11  -2    3.37    1.71
 -11  11   2    5.36    1.75
 -11  11   2    8.03    1.29
 -11  11   1    8.44    1.43
  11  11  -1    8.93    1.26
 -11  11   1    9.49    1.50
  11  11  -1   10.34    1.81
 -11  11   1   10.61    2.14
 -11  11   1    8.62    1.28
 -11  11   1   12.66    1.69
 -11  11   0    7.17    1.46
  11  11   0    9.18    1.49
  11  11   0    7.09    1.86
 -11  11   0    9.43    1.85
  11  11   0   11.08    1.47
 -11  11  -1   10.11    1.46
 -11  11  -1    8.50    1.45
  11  11   1    9.63    1.58
 -11  11  -1    9.76    1.19
  11  11   1   11.27    1.50
 -11  11  -1   10.00    1.76
  11  11   1    9.31    2.07
  11  11   1   11.23    1.46
 -11  11  -2    5.67    1.25
 -11  11  -2    6.13    1.31
  11  11   2    4.35    1.49
  11  11   2    4.59    1.50
 -11  11  -2    5.68    1.12
  11  11   2    5.74    2.06
 -11  11  -2    5.41    1.63
  11  11   2    6.54    1.36
  11  11   3   46.82    2.76
 -11  11  -3   44.31    2.80
  11  11   3   50.04    3.03
 -11  11  -3   48.27    2.89
 -11  11  -3   44.69    3.17
  11  11   3   40.74    3.61
 -11  11  -3   45.84    2.66
 -11 -11   4   30.90    3.16
 -11  11  -4   31.06    2.09
 -11  11  -4   29.29    2.62
  11  11   4   28.90    2.42
 -11  11  -4   36.62    2.28
  11  11   5   17.23    1.83
 -11  11  -5   14.61    1.67
 -11 -11   5   10.45    3.12
 -11 -11   5   11.32    2.19
 -11  11  -6    3.93    1.22
 -11 -11   6    7.02    1.85
 -11  11  -7    1.25    1.01
  11  11   8    4.02    0.77
 -11  11  -8    2.25    0.61
  11 -12   7    3.82    1.04
 -11  12   7    2.68    0.85
  11 -12   6    2.73    1.59
  11  12  -6    3.04    1.17
 -11  12   6    4.12    1.06
  11 -12   5    2.98    1.88
  11  12  -5    4.98    1.32
 -11  12   5    6.61    1.17
  11  12  -4    3.55    1.88
  11  12  -4    0.70    1.24
 -11  12   4    2.05    1.07
 -11  12   4    2.17    1.05
 -11  12   3    9.19    1.43
 -11  12   3   11.95    1.22
  11  12  -3   10.74    1.44
 -11  12   3   12.01    1.53
 -11  12   3    7.25    2.62
  11  12  -3   11.26    2.08
 -11  12   2    6.58    1.42
 -11  12   2    7.79    1.72
  11  12  -2    9.69    1.35
 -11  12   2   10.34    1.41
 -11  12   2    7.16    2.39
  11  12  -2   10.55    1.95
 -11  12   1    3.10    1.40
  11  12  -1    3.19    1.17
 -11  12   1    2.43    1.42
 -11  12   1    1.92    1.58
 -11  12   1    2.69    1.13
  11  12  -1    0.79    1.75
 -11  12   1    1.38    2.01
  11  12   0    3.38    1.85
 -11  12   0    4.68    1.91
  11  12   0    4.84    1.44
 -11  12   0    3.09    1.48
 -11  12  -1    0.76    1.42
 -11  12  -1    2.99    1.37
  11  12   1    2.66    1.48
 -11  12  -1    0.99    1.73
  11  12   1    3.70    2.08
  11  12   1    3.59    1.48
  11  12   1    2.87    1.40
 -11  12  -2    8.38    1.48
 -11  12  -2    8.36    1.48
  11  12   2    7.71    1.68
 -11  12  -2    8.50    1.77
  11  12   2    8.40    2.31
  11  12   2   10.03    1.50
  11  12   2    6.96    1.62
 -11  12  -2    8.24    1.25
 -11  12  -3   10.21    1.47
 -11  12  -3   13.14    1.57
  11  12   3   14.53    1.84
  11  12   3   12.19    1.59
  11  12   3   10.50    2.58
 -11  12  -3    9.84    1.92
 -11  12  -3   10.07    1.38
 -11  12  -4    0.61    1.32
 -11  12  -4    0.94    1.75
  11  12   4    1.18    1.39
 -11  12  -4    0.24    1.14
 -11 -12   4    1.51    2.15
  11  12   5    8.34    1.55
 -11  12  -5    5.87    1.38
  11  12   5    5.67    1.41
 -11  12  -5    5.40    1.21
 -11  12  -6    1.00    1.22
  11  12   6    3.01    1.15
 -11  12  -7    2.67    0.97
  11  12   8   11.37    0.83
 -11  13   7    9.87    0.90
  11 -13   6    3.40    1.43
  11  13  -6    2.13    1.05
 -11  13   6    2.84    0.95
 -11  13   5    1.67    1.00
  11 -13   5   -1.34    1.79
  11  13  -5   -0.02    1.15
 -11  13   4    4.51    1.05
 -11  13   4    5.66    1.13
  11  13  -4    3.07    1.29
 -11  13   3    6.33    1.37
 -11  13   3    6.72    1.05
 -11  13   3    6.69    1.38
 -11  13   3    4.75    2.46
  11  13  -3    6.19    1.96
  11  13  -3    7.28    1.34
 -11  13   2   36.00    3.41
  11  13  -2   32.52    2.29
  11  13  -2   35.66    2.90
 -11  13   2   32.19    2.56
 -11  13   2   37.40    2.48
 -11  13   2   36.33    2.37
  11  13  -1    6.59    1.94
 -11  13   1    6.80    2.35
 -11  13   1    7.19    1.52
 -11  13   1    6.01    1.63
 -11  13   1    8.37    1.75
 -11  13   1    7.76    1.23
  11  13   0    2.28    1.40
 -11  13   0    0.99    1.40
 -11  13   0    0.88    1.57
  11  13   0    1.60    1.90
 -11  13   0   -0.32    1.93
  11  13   1    5.62    1.55
 -11  13  -1    5.85    1.95
  11  13   1    4.90    2.15
  11  13   1    6.11    1.57
  11  13   1    6.37    1.53
 -11  13  -1    2.30    1.58
 -11  13  -1    6.18    1.44
  11  13   2   35.02    3.27
 -11  13  -2   39.30    2.44
  11  13   2   36.09    2.56
 -11  13  -2   31.45    2.18
  11  13   2   26.87    2.47
 -11  13  -2   30.03    2.73
  11  13   2   35.51    2.36
 -11  13  -2   36.80    2.46
 -11  13  -3    7.16    1.27
 -11  13  -3    3.44    1.72
 -11  13  -3    9.02    1.53
  11  13   3    7.08    1.48
  11  13   3    8.20    1.68
 -11  13  -3    7.43    1.38
 -11  13  -4    4.41    1.17
  11  13   4    3.15    1.43
 -11  13  -4    4.23    1.43
 -11  13  -5    1.34    1.34
 -11 -13   5   -2.02    1.90
  11  13   5    1.18    1.32
  11  13   5    0.48    1.30
  11  13   6    0.18    1.03
 -11  13  -6    2.49    1.18
 -11  13  -7    7.21    0.98
  11 -14   6    4.46    1.28
  11  14  -6    2.83    0.96
 -11  14   6    3.07    0.84
 -11  14   5    3.00    0.94
  11  14  -5    3.36    1.19
  11 -14   5    0.03    1.66
 -11  14   4   12.02    1.20
  11  14  -4   13.07    1.49
 -11  14   3    2.16    0.89
 -11  14   3   -2.21    2.39
 -11  14   3    1.72    1.26
 -11  14   3    2.20    1.26
  11  14  -3    2.06    1.26
 -11  14   2   34.98    3.48
  11  14  -2   38.78    3.17
  11  14  -2   43.58    2.54
 -11  14   2   38.48    2.78
 -11  14   2   39.89    2.69
  11  14  -1    8.38    2.07
 -11  14   1   12.61    2.44
 -11  14   1    6.88    1.53
 -11  14   1    6.70    1.65
  11  14   0   13.74    2.37
 -11  14   0   12.13    2.28
 -11  14   0   12.96    1.77
 -11  14   0   13.40    1.86
  11  14   0   12.85    1.63
  11  14   1    9.21    1.64
 -11  14  -1    6.58    1.93
  11  14   1   10.39    2.37
 -11  14  -1    9.14    1.65
 -11  14  -1    7.86    1.75
  11  14   1    9.86    1.68
 -11  14  -2   41.72    2.79
  11  14   2   43.34    2.83
 -11  14  -2   33.24    3.04
 -11  14  -2   43.72    2.74
  11  14   2   49.84    2.70
 -11  14  -2   35.52    2.47
  11  14   2   40.14    2.81
 -11  14  -3    2.34    1.14
  11  14   3    3.89    1.56
 -11  14  -3    1.41    1.67
 -11  14  -3    1.30    1.26
 -11  14  -3    0.87    1.41
  11  14   3    3.41    1.49
  11  14   4    9.16    1.62
 -11  14  -4    9.96    1.60
 -11  14  -4   10.34    1.33
  11  14   4   12.34    1.51
 -11  14  -5    1.46    1.28
  11  14   5    1.50    1.24
 -11  14  -6    1.73    1.09
  11  14   6    2.47    0.98
 -11  14  -7    2.51    0.75
  11 -15   5    0.16    1.50
  11  15  -5    2.66    1.03
  11  15  -4    2.02    1.18
 -11  15   3    3.43    1.27
 -11  15   3    0.99    1.26
 -11  15   3    4.18    1.92
  11  15  -3    2.59    1.26
 -11  15   2   10.25    1.78
 -11  15   2   11.40    1.61
 -11  15   1    1.76    2.13
 -11  15   1    1.28    1.42
 -11  15   1    2.57    1.55
 -11  15   0   19.79    2.59
 -11  15   0   23.98    2.02
  11  15   0   17.73    1.79
  11  15   1    1.64    1.43
 -11  15  -1    1.79    1.86
  11  15   1    2.16    1.57
 -11  15  -1    1.61    1.45
 -11  15  -1    2.21    1.62
 -11  15  -2   12.07    1.60
  11  15   2    7.92    1.65
  11  15   2   12.24    1.71
  11  15   2    9.88    1.82
 -11  15  -2   12.73    1.82
 -11  15  -3    2.61    1.23
 -11  15  -3    2.87    1.50
 -11  15  -3    2.79    1.18
  11  15   3    1.05    1.49
  11  15   3    1.83    1.43
  11  15   4    2.67    1.36
 -11  15  -4    3.44    1.37
  11  15   4    2.06    1.32
 -11  15  -5    1.11    1.22
  11  15   5    1.36    1.20
 -11  15  -6    2.14    1.02
  11  15   6    3.52    0.86
  11 -16   5    3.99    1.27
  11  16  -4    5.43    1.16
 -11  16   3    5.71    1.26
 -11  16   2   14.02    1.82
 -11  16   2   12.52    1.61
 -11  16   2   12.56    1.96
 -11  16   1    3.43    1.53
  11  16   0   34.38    2.37
 -11  16   0   29.19    2.30
  11  16   0   30.25    2.15
 -11  16   0   30.94    2.35
  11  16   1    2.27    1.58
  11  16   1    2.27    1.34
 -11  16  -1    3.23    1.44
  11  16   2   12.97    1.87
 -11  16  -2   15.67    1.67
  11  16   2   13.86    1.70
 -11  16  -2   14.58    1.83
 -11  16  -3    5.94    1.25
  11  16   3    5.35    1.44
 -11  16  -3    6.94    1.55
 -11  16  -4    0.43    1.37
  11  16   4    4.17    1.34
 -11  16  -5    3.92    1.24
  11  16   5    7.37    1.19
 -11  16  -6    1.76    0.88
  11  16   6    2.75    0.68
 -11  17   3    2.92    1.08
 -11  17   2    5.50    1.75
 -11  17   2    3.55    1.49
 -11  17   2    7.84    1.35
 -11  17   1    4.31    1.46
 -11  17   1    2.76    1.70
  11  17   0   12.69    1.69
 -11  17   0    8.34    1.53
 -11  17   0    9.84    1.57
  11  17   1    7.62    1.54
 -11  17  -1    4.09    1.36
  11  17   2    2.90    1.49
 -11  17  -2    5.56    1.32
 -11  17  -3    2.24    1.37
  11  17   4   -0.65    1.00
 -11  17  -4    1.25    1.23
 -11  17  -5    2.99    1.06
  11  17   6    3.74    0.48
 -11  17  -6    5.14    0.65
  11 -18   4    1.76    1.10
 -11  18   3    1.90    0.93
 -11  18   2    1.86    1.07
 -11  18   2    0.78    1.50
 -11  18   1   20.34    2.00
  11  18  -1   18.31    1.73
  11  18   0    2.20    1.32
 -11  18   0    2.78    1.48
 -11  18   0    2.79    1.29
  11  18   1   15.68    1.71
 -11  18  -1   20.68    1.66
  11  18   1   16.73    1.44
 -11  18  -2    0.72    1.10
  11  18   2    1.73    1.02
  11  18   3   -0.47    0.95
 -11  18  -4    1.98    1.10
  11  18   4    1.34    0.86
 -11  18  -5    4.46    0.86
  11  18   5    4.67    0.67
 -11  19   2    6.80    1.07
 -11  19   1    8.09    1.49
 -11  19   0    0.28    1.08
 -11  19   0    1.23    1.38
 -11  19  -1    5.76    1.18
 -11  19  -1    7.29    1.41
 -11  19  -2    8.26    1.07
  11  19   2    4.93    0.92
  11  19   3    0.77    0.78
  11  19   4    3.04    0.66
 -11  20   2    1.36    0.78
 -11  20   1    3.22    1.14
  11  20   0    1.16    0.70
 -11  20   0    0.66    0.92
 -11  20   0    1.90    1.18
 -11  20  -1    3.48    0.92
 -11  20  -1    5.39    1.19
 -11  20  -2    1.07    1.02
  11  20   2    1.45    0.54
  11  20   3    1.51    0.50
 -11  21   2    3.87    0.55
 -11  21   0    0.67    0.68
 -11  21   0    0.57    0.84
 -11  21  -1    9.58    0.95
  11  21   1    7.00    0.68
 -11  21  -2    4.29    0.73
  11  21   2    4.06    0.53
 -12   0   0   39.81    2.26
 -12   0   0   43.14    2.55
 -12   0   1   66.42    3.93
 -12   0  -1   71.26    3.59
  12   0   2  157.95    8.17
 -12   0   2  168.65    8.24
 -12   0   3  103.44    5.28
  12   0   3   87.19    4.86
 -12   0   3   89.69    4.91
  12   0   4   79.06    4.78
 -12   0   4   83.43    4.86
 -12   0   4   88.69    4.61
  12   0   4   91.14    5.38
 -12   0   5    3.46    1.24
  12   0   5    5.49    1.87
 -12   0   5    3.24    1.85
 -12   0   5    4.49    1.41
 -12   0   5    3.84    1.61
 -12   0   5    4.57    1.62
  12   0   5    5.03    2.67
 -12   0   6   13.37    1.65
 -12   0   6   13.67    2.29
 -12   0   6   16.94    1.96
 -12   0   6   20.62    1.82
 -12   0   6   15.51    1.89
  12   0   6   17.03    3.11
 -12   0   7   11.58    1.71
 -12   0   7    9.97    1.59
 -12   0   7   11.56    1.84
  12   0   7    8.87    1.43
 -12   0   7    8.95    1.42
 -12   0   8   12.78    1.52
 -12   0   8   13.04    1.41
 -12   0   9   17.64    1.26
 -12   1   9    6.37    0.92
 -12   1   8   14.06    1.46
 -12   1   8   13.09    1.53
 -12   1   7   -0.42    1.58
 -12   1   7    1.59    1.37
 -12   1   7   -1.80    1.23
  12  -1   7    1.22    1.33
 -12   1   6    5.15    1.39
  12  -1   6    5.79    3.11
 -12   1   6    7.43    1.54
 -12   1   6   10.75    2.01
 -12   1   6    9.68    1.65
 -12   1   5    1.60    1.35
  12  -1   5    1.86    2.73
 -12   1   5    3.09    1.71
  12  -1   5    2.29    1.99
 -12   1   5    1.38    1.17
 -12   1   4    2.85    1.59
  12  -1   4    2.23    1.78
 -12   1   4    3.14    1.22
  12  -1   4    4.45    2.59
 -12   1   3   29.07    2.15
  12  -1   3   27.27    2.24
 -12   1   3   27.87    2.55
 -12   1   2   90.47    4.29
  12  -1   2   82.38    4.34
 -12   1   2   76.30    4.72
 -12  -1  -1   77.23    3.82
 -12   1   1   68.53    4.12
 -12   1   0  110.13    5.31
 -12  -1   0  101.79    5.52
 -12  -1   1   75.06    4.22
 -12  -1   2   87.30    4.72
  12   1   2   79.12    4.14
 -12  -1   2   88.32    4.31
  12   1   3   25.79    2.78
 -12  -1   3   29.42    2.59
  12   1   3   31.01    2.07
 -12  -1   3   27.78    2.32
 -12  -1   4    3.75    1.83
  12   1   4    6.82    1.60
 -12  -1   4    4.45    1.46
  12   1   4    6.38    2.35
 -12  -1   5    2.00    1.27
  12   1   5    3.13    1.66
 -12  -1   5    1.94    1.98
 -12  -1   5    1.26    1.31
 -12  -1   5    2.49    1.57
 -12  -1   5    3.10    1.60
  12   1   5   -0.97    2.55
 -12  -1   6    7.60    1.53
 -12  -1   6    6.03    2.17
 -12  -1   6    7.32    1.80
 -12  -1   6    7.70    1.54
 -12  -1   6    7.43    1.68
  12   1   6    7.65    2.79
 -12  -1   7   -0.16    1.40
 -12  -1   7    0.23    1.52
  12   1   7   -0.19    1.21
 -12  -1   7    1.01    1.34
 -12  -1   8   12.81    1.54
 -12  -1   8   13.27    1.44
 -12  -1   9    5.58    0.87
 -12   2   9    3.36    0.84
 -12   2   8   29.12    1.99
 -12   2   8   29.63    2.05
 -12   2   7   -0.03    1.38
 -12   2   7    2.55    1.59
  12  -2   7    2.13    1.41
 -12   2   7    0.97    1.16
 -12   2   6    5.34    1.86
 -12   2   6    6.62    1.67
 -12   2   6    9.67    1.57
 -12   2   6    4.23    1.31
  12  -2   6    8.61    3.21
 -12   2   6    3.66    1.56
 -12   2   5   10.96    1.84
  12  -2   5    8.41    2.26
 -12   2   5    9.36    1.52
 -12   2   5    6.89    1.27
 -12   2   5    9.76    1.75
 -12   2   5    7.27    1.68
  12  -2   5   10.84    3.06
 -12   2   4    5.49    1.29
 -12   2   4    7.72    1.55
  12  -2   4    4.89    1.89
 -12   2   4   10.86    1.65
 -12   2   3    8.28    1.37
  12  -2   3    8.80    1.76
 -12   2   2   50.14    2.71
  12  -2   2   51.58    2.89
 -12   2   1  252.01   12.58
 -12  -2  -1  280.59   12.68
 -12  -2   0    7.51    1.41
 -12  -2   1  294.12   11.41
 -12  -2   1  217.79   10.89
  12   2   2   48.48    2.79
 -12  -2   2   57.81    3.09
 -12   2  -2   52.28    2.84
 -12  -2   2   64.58    3.47
  12   2   2   60.83    3.34
  12   2   3    7.39    1.30
 -12  -2   3    8.15    1.70
  12   2   3    7.38    2.03
 -12  -2   3    7.87    1.92
  12   2   4    8.90    1.63
 -12  -2   4    8.45    1.97
  12   2   4    6.72    2.28
 -12  -2   4    8.84    1.53
 -12  -2   5   10.42    1.44
 -12  -2   5    8.81    2.18
  12   2   5   10.68    1.86
 -12  -2   5    9.84    1.52
 -12  -2   5   10.21    2.09
  12   2   5    8.73    2.48
 -12  -2   5   12.45    1.78
 -12  -2   5   11.07    1.72
 -12  -2   6    3.86    1.46
 -12  -2   6    3.18    2.24
 -12  -2   6    6.58    1.43
 -12  -2   6    4.79    1.70
  12   2   6    8.46    2.70
 -12  -2   6    5.65    1.67
 -12  -2   7    3.79    1.55
 -12  -2   7    3.22    1.45
 -12  -2   7    3.32    1.38
 -12  -2   8   26.86    2.00
 -12  -2   8   25.70    1.86
 -12  -2   9    3.83    0.82
 -12   3   9    9.14    0.95
 -12   3   8    8.04    1.29
  12  -3   7   14.65    1.71
 -12   3   7   18.58    1.70
 -12   3   7   14.48    1.81
 -12   3   7   16.06    1.76
 -12   3   6    5.28    1.72
 -12   3   6    2.93    1.21
 -12   3   6    5.05    1.60
  12  -3   6    9.02    3.23
 -12   3   6    3.95    1.67
  12  -3   5    6.04    2.20
 -12   3   5    6.98    1.71
 -12   3   5    6.20    1.72
 -12   3   5    6.00    1.14
 -12   3   5    7.87    1.50
 -12   3   5    7.40    1.61
 -12   3   5    5.71    1.65
  12  -3   5    3.06    3.05
 -12   3   5    7.50    0.97
 -12   3   4   13.59    1.71
 -12   3   4   13.51    1.71
  12  -3   4   13.41    2.21
 -12   3   4   10.70    1.80
 -12   3   3   12.78    1.14
 -12   3   3   12.47    1.44
  12  -3   3   14.62    2.00
 -12   3   2   80.44    3.77
  12   3  -2   71.79    3.88
  12  -3   2   67.31    4.02
 -12   3   2   72.33    3.77
 -12  -3  -1   10.26    1.24
  12   3  -1   11.47    0.96
 -12   3   0   97.60    4.93
 -12  -3   0  118.13    5.32
 -12  -3   1   13.81    1.70
  12   3   1    7.22    0.96
 -12   3  -1   11.53    0.86
 -12  -3   1    9.80    1.20
  12   3   2   64.96    3.23
 -12  -3   2   66.24    3.57
  12   3   2   52.10    3.45
 -12  -3   2   61.02    3.78
 -12   3  -2   64.05    3.27
 -12  -3   3   11.66    1.93
  12   3   3    6.78    1.86
  12   3   3   10.55    1.35
 -12  -3   3    9.34    1.90
  12   3   4   11.26    1.66
 -12  -3   4   14.04    2.15
 -12  -3   4   13.64    1.67
  12   3   4   12.72    2.21
 -12  -3   5    9.64    1.48
  12   3   5    9.64    1.78
 -12  -3   5   12.10    2.26
 -12  -3   5    5.46    1.36
 -12  -3   5    7.87    1.70
 -12  -3   5    6.12    1.70
 -12  -3   5    8.35    2.10
  12   3   5    6.08    2.31
 -12  -3   6    4.52    1.50
 -12  -3   6    4.34    2.33
 -12  -3   6    5.77    1.38
 -12  -3   6    5.41    1.74
 -12  -3   6    4.27    1.63
  12   3   6    4.00    2.35
 -12  -3   7   15.05    1.70
 -12  -3   7   16.48    1.82
 -12  -3   7   12.91    1.66
 -12  -3   8    5.84    1.42
 -12  -3   8    8.31    1.19
 -12  -3   9    6.01    0.76
 -12   4   9   18.37    1.23
 -12   4   8    2.75    1.16
 -12   4   7   17.53    1.80
  12  -4   7   17.95    1.80
 -12   4   6   17.11    2.11
 -12   4   6   17.76    1.86
 -12   4   5    6.09    1.71
  12  -4   5    7.92    3.29
 -12   4   5    8.82    1.61
 -12   4   5    7.15    1.51
 -12   4   5    8.81    1.68
 -12   4   5    7.39    1.69
  12  -4   5    9.28    2.38
 -12   4   4   11.40    1.50
 -12   4   4   12.26    1.60
  12  -4   4    9.49    2.20
 -12   4   4    9.23    1.04
 -12   4   4   10.09    1.61
 -12   4   4   10.88    1.70
 -12   4   4   12.21    1.55
 -12   4   4   12.53    1.61
 -12   4   4   12.82    1.50
 -12   4   3   29.65    1.77
 -12   4   3   30.17    2.07
  12  -4   3   32.29    2.63
  12  -4   2  102.30    5.76
 -12   4   2  109.52    5.51
 -12   4   2  113.18    5.45
  12   4  -2  113.64    5.60
 -12   4   1   47.88    2.95
 -12   4   1   52.66    2.75
  12   4  -1   52.85    2.74
 -12   4   0    2.21    0.93
  12   4   1   45.00    2.54
 -12   4  -1   44.95    2.42
 -12  -4   2  115.12    5.93
  12   4   2  113.29    5.45
  12   4   2  102.98    5.39
 -12   4  -2  107.02    5.47
 -12  -4   2  114.30    5.74
 -12   4  -3   31.93    2.25
 -12  -4   3   32.88    2.78
  12   4   3   32.89    2.19
  12   4   3   35.66    2.42
 -12  -4   3   34.46    2.73
  12   4   4   12.65    1.96
 -12  -4   4   14.03    2.25
  12   4   4   11.43    1.61
 -12  -4   4   12.59    1.67
 -12  -4   5    6.63    1.72
 -12  -4   5    8.55    1.57
  12   4   5   10.83    2.13
 -12  -4   5    9.57    2.21
 -12  -4   5    8.03    1.34
  12   4   5    9.90    1.72
 -12  -4   5    8.70    2.29
  12   4   5    6.05    1.41
 -12  -4   6   21.70    2.08
 -12  -4   6   21.35    2.61
 -12  -4   6   18.98    1.93
 -12  -4   6   19.94    2.84
 -12  -4   7   20.29    1.82
 -12  -4   7   18.39    1.86
 -12  -4   7   20.78    1.91
 -12  -4   8   -0.02    1.28
 -12  -4   8    1.94    0.98
 -12   5   9   -0.02    0.66
 -12   5   8    8.21    1.25
  12  -5   7    3.16    1.46
 -12   5   7    3.21    1.40
  12  -5   6   25.82    2.24
 -12   5   6   31.16    2.20
 -12   5   6   26.96    2.43
 -12   5   6   30.46    2.15
  12  -5   6   28.82    3.98
 -12   5   5    5.21    1.71
  12  -5   5    6.04    3.31
 -12   5   5    6.82    1.62
  12  -5   5   10.43    2.48
 -12   5   5    5.90    1.40
 -12   5   5    6.73    1.46
 -12   5   5    5.35    1.48
 -12   5   5    7.27    1.60
 -12   5   4    6.55    1.66
 -12   5   4    5.60    1.48
 -12   5   4    5.70    1.43
 -12   5   4    4.78    1.31
 -12   5   4    5.48    1.45
  12  -5   4    5.38    2.19
 -12   5   4    4.32    0.82
 -12   5   4    6.60    1.33
 -12   5   3   61.79    3.30
 -12   5   3   54.50    2.98
  12   5  -3   56.34    3.45
 -12   5   2   51.05    2.58
 -12   5   2   45.68    2.67
  12   5  -2   46.10    2.79
 -12   5   1  102.21    5.68
  12   5  -1  116.82    5.54
  12   5   0    2.70    0.98
 -12   5   0    2.63    1.07
  12   5   1   98.49    5.24
 -12   5  -1  106.76    5.17
 -12   5  -2   50.96    2.85
 -12  -5   2   48.56    3.31
  12   5   3   56.50    3.20
 -12   5  -3   57.79    3.27
 -12  -5   3   50.40    3.72
 -12  -5   3   58.42    3.77
  12   5   4    5.27    1.36
 -12  -5   4    5.26    2.16
  12   5   4    4.96    1.40
 -12  -5   4    4.44    1.16
 -12   5  -4    5.60    1.56
 -12  -5   4    4.62    1.42
  12   5   5    5.86    1.46
 -12  -5   5    7.70    2.33
 -12  -5   5    7.86    1.69
 -12  -5   5    4.94    1.64
 -12  -5   5    5.17    1.23
 -12  -5   5    3.93    2.10
 -12   5  -5    5.52    1.80
 -12  -5   6   26.73    2.20
 -12  -5   6   25.06    2.82
 -12  -5   6   27.16    2.24
 -12  -5   6   29.28    3.15
 -12   5  -6   22.23    2.55
 -12  -5   7    4.99    1.45
 -12  -5   7    4.39    1.42
 -12  -5   7    2.38    1.32
 -12  -5   8    5.24    0.99
 -12  -5   8    7.02    1.35
 -12   6   9    0.62    0.59
 -12   6   8    0.87    1.04
 -12   6   7    2.02    1.31
  12  -6   7    2.79    1.44
  12  -6   6    8.43    1.70
 -12   6   6    4.08    1.38
 -12   6   6    3.86    1.32
  12  -6   6    6.30    3.50
 -12   6   6    3.95    1.58
 -12   6   5   97.04    5.08
 -12   6   5   95.41    5.24
  12   6  -5   99.07    5.66
 -12   6   5   98.58    5.09
 -12   6   5  102.81    5.17
 -12   6   5   96.57    5.08
 -12   6   5   87.83    5.30
 -12   6   4    8.45    1.40
 -12   6   4   10.38    1.69
 -12   6   4    9.91    1.44
  12   6  -4   10.75    1.91
 -12   6   4   10.37    1.36
 -12   6   4    8.77    1.41
 -12   6   4    9.04    1.50
 -12   6   4    9.10    1.40
  12  -6   4   10.19    2.49
 -12   6   4    7.49    1.45
  12   6  -3   95.02    4.63
 -12   6   3   88.48    4.41
  12  -6   3   93.29    5.00
 -12   6   2   20.62    2.22
 -12   6   2   23.39    1.72
  12   6  -1    8.64    1.23
 -12   6   1    8.92    1.55
  12   6   0  171.96    7.62
 -12   6   0  137.15    7.59
  12   6   1    9.49    1.44
 -12   6  -1    9.51    1.24
  12   6   2   31.69    2.25
 -12   6  -2   23.59    1.89
  12   6   3   91.50    4.82
 -12  -6   3   99.94    5.43
 -12   6  -3   85.89    4.87
 -12  -6   3   94.31    5.37
  12   6   4   11.74    1.55
 -12  -6   4   10.35    2.42
  12   6   4   11.93    1.60
 -12  -6   4   10.47    1.56
 -12   6  -4   10.77    1.70
 -12  -6   4   10.41    1.62
 -12  -6   5  111.32    6.17
 -12  -6   5  102.19    5.41
 -12  -6   5  105.09    5.39
 -12  -6   5  108.45    6.27
  12   6   5   99.38    5.35
 -12   6  -5   89.39    5.62
 -12  -6   6    7.83    1.68
  12   6   6    5.23    1.30
 -12  -6   6    2.58    1.51
 -12  -6   6    7.14    2.56
 -12  -6   6    1.49    2.07
 -12  -6   7    3.07    1.31
 -12  -6   7    2.72    1.23
 -12  -6   7    3.83    1.46
 -12  -6   8    1.85    1.15
 -12   7   9    0.91    0.49
 -12   7   8    0.18    0.97
  12  -7   7    2.32    1.42
  12  -7   6    9.88    1.82
 -12   7   6    8.09    1.34
 -12   7   6    6.09    1.58
 -12   7   5   31.93    2.71
 -12   7   5   35.78    2.70
 -12   7   5   40.04    2.52
  12   7  -5   35.98    3.10
 -12   7   5   41.38    2.47
 -12   7   5   41.25    2.47
 -12   7   4    3.67    1.28
 -12   7   4    6.08    1.62
 -12   7   4    5.39    1.32
 -12   7   4    5.71    1.19
 -12   7   4    5.65    1.40
  12   7  -4    3.41    1.67
 -12   7   4    4.49    1.33
 -12   7   4    4.58    1.24
  12  -7   4    3.16    2.48
 -12   7   4    3.76    1.38
 -12   7   3   39.62    2.55
  12   7  -3   36.70    2.76
 -12   7   3   45.44    2.82
 -12   7   2   51.94    3.31
  12   7  -2   48.23    2.98
 -12   7   2   48.20    2.78
 -12   7   1    4.82    1.57
  12   7  -1    4.40    1.26
 -12   7   1    5.61    1.07
  12   7   0   40.02    2.56
 -12   7   0   41.06    2.59
  12   7   1    5.19    1.48
 -12   7  -1    4.68    1.26
  12   7   2   45.50    3.18
 -12   7  -2   51.57    2.93
 -12  -7   3   34.26    3.11
  12   7   3   32.90    2.43
 -12   7  -3   36.26    2.54
 -12  -7   4    0.99    1.57
 -12  -7   4    4.08    2.37
  12   7   4    3.49    1.39
 -12   7  -4    2.62    1.48
  12   7   4    3.47    1.41
 -12   7  -5   34.75    2.71
 -12  -7   5   30.55    2.50
 -12  -7   5   33.78    3.14
 -12  -7   5   29.45    2.39
 -12  -7   5   30.35    3.49
  12   7   5   34.30    2.39
 -12  -7   6    5.50    2.58
 -12  -7   6    7.39    1.75
 -12  -7   6    5.56    1.45
  12   7   6    6.58    1.45
 -12  -7   6    6.60    2.21
 -12  -7   6    3.81    1.51
 -12   7  -7    3.82    1.14
 -12  -7   7    1.03    1.09
 -12   7  -8    1.09    0.81
 -12  -7   8    0.80    1.01
  12   7   9   -0.22    0.56
 -12   8   8    1.77    0.89
  12  -8   7    4.35    1.41
 -12   8   6    4.59    1.37
  12  -8   6    9.47    1.79
 -12   8   5   10.48    1.74
 -12   8   5   12.68    1.54
 -12   8   5   11.11    1.73
 -12   8   5   12.21    1.41
  12   8  -5   11.17    2.15
 -12   8   4   48.52    3.16
 -12   8   4   48.38    3.05
  12  -8   4   48.37    4.07
 -12   8   4   49.26    2.88
  12   8  -4   48.98    3.43
 -12   8   4   49.91    3.00
 -12   8   4   52.82    2.86
 -12   8   4   54.95    2.99
 -12   8   4   49.74    3.15
 -12   8   3    1.49    1.75
 -12   8   3    1.35    1.25
 -12   8   3    1.72    1.21
 -12   8   3    2.89    1.09
  12   8  -3    3.08    1.53
 -12   8   3    2.98    1.02
 -12   8   2   20.11    1.53
 -12   8   2   15.54    2.20
  12   8  -2   22.51    1.88
 -12   8   2   15.98    1.67
 -12   8   2   19.97    2.02
 -12   8   1    5.26    1.64
  12   8  -1    5.47    1.35
 -12   8   1    4.74    1.12
  12   8   0    2.08    1.33
 -12   8   0    0.76    1.39
 -12   8  -1    2.90    1.32
  12   8   1    4.29    1.56
 -12   8  -1    3.82    0.89
 -12   8  -2   18.07    1.59
  12   8   2   22.79    2.22
 -12   8  -2   18.08    1.33
 -12   8  -2   19.24    1.80
 -12  -8   3    2.87    2.00
 -12   8  -3    2.35    1.02
 -12   8  -3    1.65    1.12
 -12   8  -3    2.93    1.37
  12   8   3    2.52    1.36
  12   8   4   57.47    3.22
 -12   8  -4   52.80    2.99
  12   8   4   46.16    3.15
 -12   8  -4   46.12    3.29
 -12  -8   4   58.75    4.19
  12   8   5   12.68    1.70
 -12  -8   5   13.59    2.96
 -12  -8   5   12.33    1.95
 -12   8  -5    9.52    1.93
 -12  -8   5   11.42    1.62
 -12  -8   5   12.91    2.51
 -12  -8   6    6.50    1.40
  12   8   6    7.06    1.44
 -12  -8   6   10.81    1.81
 -12  -8   6    6.08    1.41
 -12   8  -7    5.74    1.18
 -12   8  -8    1.10    0.73
  12  -9   7    5.27    1.33
 -12   9   6   20.02    1.72
  12  -9   6   20.52    2.13
  12  -9   5   12.99    2.09
 -12   9   5   10.95    1.47
 -12   9   5   12.41    1.59
 -12   9   5    9.07    1.66
 -12   9   4   68.93    4.36
 -12   9   4   80.02    4.12
  12   9  -4   70.23    4.63
 -12   9   4   78.96    4.38
 -12   9   4   81.54    4.32
 -12   9   4   82.57    4.09
 -12   9   3   10.14    1.62
 -12   9   3   14.49    1.31
 -12   9   3   12.48    1.31
 -12   9   3   14.40    1.38
 -12   9   3   13.76    2.09
 -12   9   3   15.61    1.44
  12   9  -3   12.04    1.85
 -12   9   3   14.79    2.42
 -12   9   2    0.65    1.04
 -12   9   2    1.64    1.07
 -12   9   2    1.44    1.51
  12   9  -2    0.48    0.98
 -12   9   2    1.17    1.28
 -12   9   2    2.33    1.82
  12   9  -2    1.23    1.40
 -12   9   1   21.54    1.79
 -12   9   1   22.62    2.30
  12   9  -1   23.06    2.04
 -12   9   1   21.57    1.76
  12   9   0   23.01    2.08
 -12   9   0   22.09    2.09
 -12   9  -1   23.82    1.82
  12   9   1   20.21    2.26
 -12   9  -1   23.74    1.60
 -12   9  -1   24.23    2.00
 -12   9  -1   26.33    1.86
 -12   9  -2    0.92    1.10
 -12   9  -2    1.87    1.12
 -12   9  -2    1.04    0.87
  12   9   2    1.84    1.80
 -12   9  -2    0.68    1.29
 -12   9  -3   15.15    1.79
 -12   9  -3   14.51    1.46
 -12   9  -3   14.18    1.52
 -12   9  -4   80.84    4.18
 -12   9  -4   74.56    4.48
 -12  -9   4   67.90    5.26
  12   9   4   77.71    4.33
 -12   9  -5   13.69    1.58
 -12  -9   5    8.79    1.96
  12   9   5    9.88    1.70
 -12  -9   5    8.83    2.87
 -12   9  -5    8.62    1.88
 -12  -9   5   11.26    2.48
 -12   9  -6   18.73    1.71
 -12  -9   6   22.22    2.12
  12   9   6   16.59    1.78
 -12   9  -7    5.10    1.13
 -12   9  -8    0.94    0.68
 -12  10   7    2.29    1.02
 -12  10   6    1.01    1.18
  12 -10   6    4.64    1.67
  12 -10   5   24.52    2.45
 -12  10   5   26.69    1.90
 -12  10   4   11.00    1.59
 -12  10   4   11.16    1.34
  12  10  -4   10.73    2.01
 -12  10   4   11.66    1.79
 -12  10   3   10.94    2.11
 -12  10   3   11.66    1.42
 -12  10   3   10.69    1.32
 -12  10   3    8.60    1.21
  12  10  -3   10.45    1.30
  12  10  -3   11.54    1.84
 -12  10   3    6.04    2.33
 -12  10   2    4.72    1.24
 -12  10   2    5.69    1.22
 -12  10   2    4.07    2.06
  12  10  -2    7.50    1.65
 -12  10   2    4.26    1.65
 -12  10   2    5.17    1.21
  12  10  -2    4.74    1.13
 -12  10   2    3.14    1.42
  12  10  -1    2.51    1.50
 -12  10   1   -0.05    1.70
 -12  10   1    1.96    1.48
 -12  10   1    0.46    1.14
  12  10  -1    2.05    1.03
 -12  10   1    2.15    1.24
  12  10   0    4.39    1.71
 -12  10   0    3.81    1.59
 -12  10   0    2.04    1.37
 -12  10  -1    1.17    1.20
 -12  10  -1    0.53    1.16
 -12  10  -1    1.32    1.45
  12  10   1    4.07    1.81
  12  10   1    1.95    1.23
 -12  10  -1    1.25    1.00
  12  10   2    5.57    1.48
 -12  10  -2    4.05    1.21
 -12  10  -2    4.10    1.29
  12  10   2    5.47    1.97
 -12  10  -2    4.96    1.45
  12  10   2    5.92    1.32
 -12  10  -2    4.08    1.00
  12  10   2    7.81    1.44
 -12  10  -3    9.14    1.41
 -12  10  -3   11.01    1.21
 -12  10  -3    9.77    1.71
  12  10   3   12.91    2.32
 -12  10  -3   12.15    1.44
 -12  10  -4   11.75    1.59
  12  10   4   14.22    1.81
 -12  10  -4   10.29    1.88
 -12 -10   4   16.49    3.07
 -12 -10   5   27.65    2.50
 -12 -10   5   28.59    3.08
  12  10   5   27.54    2.21
 -12 -10   5   24.16    3.42
 -12  10  -5   27.42    2.05
  12  10   6    2.57    1.30
 -12  10  -6    1.73    1.23
 -12  10  -7    0.66    0.99
 -12  10  -8    3.94    0.65
 -12  11   8    2.28    0.57
 -12  11   7    1.73    0.90
 -12  11   6    5.40    1.16
  12 -11   6    8.04    1.66
  12 -11   5   12.40    2.07
 -12  11   5   15.55    1.46
  12  11  -4   57.27    3.27
 -12  11   4   61.11    3.19
 -12  11   4   57.73    3.37
 -12  11   4   56.33    3.38
 -12  11   3  147.21    7.02
 -12  11   3  130.88    6.67
 -12  11   3  131.99    6.43
 -12  11   3  134.34    6.64
  12  11  -3  114.43    6.95
 -12  11   3  135.74    7.46
  12  11  -3  124.35    6.51
 -12  11   2    6.95    1.35
 -12  11   2    5.99    1.20
 -12  11   2    9.30    2.21
  12  11  -2    5.38    1.67
 -12  11   2    7.19    1.52
  12  11  -2    3.67    1.16
 -12  11   2    9.56    1.87
 -12  11   2    6.49    1.33
  12  11  -1    8.71    1.83
 -12  11   1    9.62    2.11
  12  11  -1    9.97    1.29
 -12  11   1   10.20    1.50
 -12  11   1   16.09    1.82
 -12  11   1    9.47    1.51
  12  11   0   32.40    2.82
 -12  11   0   39.12    2.88
 -12  11   0   41.01    2.58
  12  11   0   34.29    2.44
  12  11   1   11.11    1.63
 -12  11  -1   11.40    1.53
 -12  11  -1   10.60    1.56
 -12  11  -1    8.55    1.80
  12  11   1    6.93    2.07
  12  11   1    9.26    1.42
  12  11   1   11.62    1.55
  12  11   2    5.28    1.57
 -12  11  -2    6.74    1.42
 -12  11  -2    7.40    1.44
  12  11   2    7.34    2.19
 -12  11  -2    7.87    1.64
  12  11   2    5.48    1.52
 -12  11  -2    7.71    1.15
  12  11   2    7.01    1.41
 -12  11  -3  126.14    6.39
 -12  11  -3  133.79    6.59
 -12  11  -3  123.70    6.82
  12  11   3  124.86    6.43
 -12  11  -3  135.45    6.54
  12  11   3  125.32    6.67
 -12  11  -4   61.96    3.44
  12  11   4   58.75    3.55
 -12  11  -4   59.81    3.24
 -12 -11   4   50.97    4.58
 -12  11  -4   56.32    3.73
 -12  11  -5   11.67    1.34
 -12 -11   5   10.82    2.04
  12  11   5   13.15    1.73
 -12  11  -5   16.01    1.63
 -12  11  -6    3.45    1.26
  12  11   6    4.73    1.32
 -12  11  -7    1.37    0.97
 -12  12   7    2.72    0.81
 -12  12   6    5.60    1.07
  12 -12   6    7.91    1.54
  12  12  -6    5.43    1.13
 -12  12   5    4.44    1.10
  12 -12   5    3.05    1.83
  12  12  -5    4.59    1.27
  12  12  -4   12.06    1.48
 -12  12   4   12.79    1.31
 -12  12   4   11.93    1.30
 -12  12   4   14.24    1.52
  12  12  -3   31.73    2.06
 -12  12   3   25.13    3.14
 -12  12   3   32.00    2.17
 -12  12   3   27.40    1.85
 -12  12   3   29.68    2.17
 -12  12   3   30.46    2.80
  12  12  -2   10.12    1.95
 -12  12   2   11.08    2.48
 -12  12   2    9.66    1.50
 -12  12   2   11.55    2.03
 -12  12   2    7.30    1.69
  12  12  -2   10.40    1.38
  12  12  -1    5.33    1.85
 -12  12   1    4.80    2.09
 -12  12   1    1.94    1.36
 -12  12   1    5.10    1.45
 -12  12   1    5.22    1.71
  12  12   0   13.33    2.13
 -12  12   0   10.43    2.09
 -12  12   0   13.77    1.72
  12  12   0    8.72    1.60
  12  12   1    5.06    1.52
  12  12   1    4.88    1.45
 -12  12  -1    4.68    1.74
  12  12   1    4.29    2.06
 -12  12  -1    3.56    1.42
 -12  12  -1    1.33    1.42
  12  12   1    2.25    1.38
  12  12   2   10.75    1.75
  12  12   2    9.90    1.66
 -12  12  -2    9.08    1.30
 -12  12  -2   10.63    1.86
  12  12   2   11.94    1.56
 -12  12  -2    9.53    1.55
 -12  12  -2    9.12    1.49
 -12  12  -3   26.91    1.99
 -12  12  -3   25.96    2.51
  12  12   3   33.55    2.19
  12  12   3   36.46    2.51
 -12  12  -3   28.43    2.25
 -12  12  -3   32.68    2.24
 -12  12  -4   10.21    1.61
 -12  12  -4   11.76    1.32
 -12 -12   4   11.47    2.58
 -12 -12   4   10.72    2.98
  12  12   4   12.17    1.54
 -12 -12   5    3.30    1.84
  12  12   5    3.90    1.44
 -12  12  -5    4.31    1.38
  12  12   5    3.64    1.38
 -12  12  -6    4.03    1.24
  12  12   6    7.07    1.30
 -12  12  -7    1.68    0.94
 -12  13   7   17.13    1.12
 -12  13   6    3.45    0.91
  12  13  -5    1.78    1.14
 -12  13   5    2.27    0.98
  12 -13   5    0.59    1.70
 -12  13   4    5.80    1.06
  12  13  -4    5.76    1.28
 -12  13   3   14.30    1.56
 -12  13   3   12.93    1.17
 -12  13   3    8.93    2.53
  12  13  -3   10.38    1.46
 -12  13   2    8.56    2.50
  12  13  -2   12.02    1.49
 -12  13   2   10.88    1.79
 -12  13   2   12.05    1.61
 -12  13   2   11.89    2.19
 -12  13   1    3.80    2.27
 -12  13   1    0.24    1.38
 -12  13   1    1.79    1.51
 -12  13   1    3.16    1.83
 -12  13   1    3.87    1.19
 -12  13   0    5.38    2.07
 -12  13   0    1.78    1.66
  12  13   0    4.25    1.45
  12  13   1    1.03    1.45
  12  13   1    2.64    1.50
 -12  13  -1    1.64    1.81
 -12  13  -1    1.33    1.49
 -12  13  -1   -1.06    1.55
  12  13   1    2.58    1.50
  12  13   2   14.99    1.86
 -12  13  -2   13.83    1.71
 -12  13  -2    8.16    1.97
 -12  13  -2   12.79    1.67
  12  13   2   12.24    1.68
 -12  13  -2   11.63    1.37
  12  13   2   12.21    1.77
  12  13   3   11.94    1.84
 -12  13  -3   14.14    1.70
 -12  13  -3   10.56    1.87
 -12  13  -3   12.27    1.40
 -12  13  -3   14.82    1.60
  12  13   3   12.91    1.65
 -12  13  -4    5.15    1.48
  12  13   4    5.30    1.46
 -12  13  -4    4.24    1.15
 -12  13  -5    0.95    1.29
  12  13   5    1.56    1.29
  12  13   5    2.34    1.39
 -12  13  -6    1.92    1.16
  12  13   6    2.28    1.03
  12  13   6    3.46    1.15
 -12  13  -7    9.91    1.03
  12 -14   5    4.90    1.64
  12  14  -5    6.40    1.15
  12  14  -4   17.43    1.57
  12  14  -3    4.60    1.25
 -12  14   3    0.73    1.37
 -12  14   3    3.55    1.26
 -12  14   2    3.72    2.30
 -12  14   2    3.00    1.42
 -12  14   2    5.12    1.63
 -12  14   1   16.32    2.58
 -12  14   1   18.09    1.87
 -12  14   1   19.94    2.18
 -12  14   1   15.01    1.49
 -12  14   1   16.68    1.85
 -12  14   0    1.82    1.96
 -12  14   0    1.88    1.42
 -12  14   0    3.79    1.65
  12  14   0    4.49    1.44
 -12  14  -1   15.62    2.31
 -12  14  -1   19.38    1.94
  12  14   1   20.44    1.91
 -12  14  -1   19.30    2.03
  12  14   1   17.73    1.90
  12  14   2    4.37    1.62
  12  14   2    7.01    1.62
 -12  14  -2    4.93    1.84
 -12  14  -2    6.50    1.49
  12  14   2    4.07    1.54
 -12  14  -2    2.92    1.54
 -12  14  -3    3.90    1.52
 -12  14  -3    4.04    1.33
  12  14   3    3.91    1.46
  12  14   3    2.17    1.49
 -12  14  -3    4.98    1.17
  12  14   4   21.78    1.79
  12  14   4   19.99    1.91
 -12  14  -4   15.89    1.78
 -12  14  -5    6.38    1.36
  12  14   5    8.42    1.32
 -12  14  -6    8.04    1.20
  12  14   6    9.96    1.18
  12  14   6    6.77    1.06
 -12  14  -7    9.06    0.87
  12 -15   5    1.10    1.34
  12  15  -4    1.76    1.12
  12  15  -3    1.61    1.19
 -12  15   3    0.90    1.30
 -12  15   3    2.48    1.25
 -12  15   2    5.89    1.62
 -12  15   2    7.45    1.45
 -12  15   1    1.78    2.11
 -12  15   1    3.52    1.43
 -12  15   1    4.93    1.51
  12  15   0    3.61    1.37
 -12  15   0    3.88    2.07
 -12  15   0    3.79    1.49
 -12  15   0    3.57    1.72
  12  15   0    4.80    1.56
 -12  15   0    4.39    1.51
  12  15   1    3.92    1.51
 -12  15  -1    3.55    1.93
  12  15   1    3.69    1.56
 -12  15  -1    4.87    1.51
 -12  15  -1    1.83    1.63
 -12  15  -2    7.71    1.48
  12  15   2    8.84    1.71
  12  15   2    6.94    1.60
 -12  15  -2    6.20    1.64
 -12  15  -3    0.40    1.49
  12  15   3    1.82    1.44
  12  15   3    2.11    1.44
 -12  15  -3    1.83    1.22
  12  15   4    0.50    1.34
  12  15   4    2.76    1.35
 -12  15  -4    2.54    1.39
  12  15   5    2.07    1.16
 -12  15  -5    1.10    1.23
 -12  15  -6    1.73    0.96
  12  15   6    2.47    0.94
  12  15   6    2.66    0.80
 -12  16   3    8.08    1.28
 -12  16   2    5.18    1.54
 -12  16   2    5.94    1.37
 -12  16   1    1.69    1.47
 -12  16   1    1.48    1.37
  12  16   0   47.23    2.84
 -12  16   0   44.08    2.78
 -12  16   0   46.70    2.90
  12  16   0   41.30    2.67
 -12  16  -1    2.11    1.40
  12  16   1    0.41    1.49
 -12  16  -1    1.17    1.59
  12  16   1    1.35    1.31
 -12  16  -2    6.97    1.39
  12  16   2    6.18    1.45
 -12  16  -2    5.94    1.62
  12  16   2    5.08    1.56
  12  16   3    7.78    1.48
 -12  16  -3    6.31    1.58
  12  16   4    0.96    1.23
 -12  16  -4    0.81    1.35
 -12  16  -5    1.24    1.15
  12  16   6    3.86    0.63
 -12  16  -6    3.86    0.79
 -12  17   3    6.31    1.11
 -12  17   2    1.70    1.64
 -12  17   2    0.96    1.19
  12  17  -1    2.48    1.36
 -12  17   0   17.86    1.75
  12  17   0   15.07    1.70
 -12  17  -1    2.31    1.26
 -12  17  -2    0.99    1.20
 -12  17  -2    1.45    1.46
 -12  17  -3    5.62    1.44
  12  17   4    2.79    1.02
 -12  17  -4    5.93    1.31
 -12  17  -5    1.09    0.98
 -12  18   2    2.49    1.06
 -12  18   2    3.46    1.47
 -12  18   1    3.61    1.52
 -12  18   0    1.92    1.20
 -12  18  -1    2.40    1.18
  12  18   1    2.85    0.96
 -12  18  -2    2.66    1.07
  12  18   2    2.10    0.99
  12  18   3    1.48    0.95
 -12  18  -3    3.26    1.20
  12  18   4    3.84    0.87
 -12  18  -4    4.28    1.10
  12  18   5    1.89    0.55
 -12  18  -5    1.97    0.76
 -12  19   2    3.86    0.93
 -12  19   1   11.00    1.54
 -12  19   0   11.89    1.32
 -12  19   0   10.05    1.56
 -12  19  -1    9.09    1.21
  12  19   2    2.54    0.81
  12  19   3    2.07    0.76
  12  19   4    0.47    0.55
 -12  19  -4    3.00    0.85
 -12  20   2    1.27    0.70
 -12  20   0    1.09    0.89
  12  20   0    1.54    0.62
 -12  20   0    1.31    1.13
 -12  20  -1   11.57    1.09
 -12  20  -1    9.83    1.31
  12  20   2    1.72    0.48
 -12  21   0   -0.04    0.68
 -12  21  -1    9.08    0.96
 -12  21  -2   -0.01    0.55
 -13   0   0    2.56    0.93
 -13   0   0    2.25    1.24
 -13   0  -1   11.10    1.21
 -13   0   1   10.33    1.64
 -13   0   1   10.07    1.08
 -13   0   2   14.73    1.23
 -13   0   2   26.47    2.18
 -13   0   3    2.07    1.26
 -13   0   3    1.10    1.76
 -13   0   4    2.08    1.54
 -13   0   4    0.29    1.42
  13   0   4    1.54    2.41
 -13   0   4   -1.44    1.52
 -13   0   5    5.12    1.70
 -13   0   5    3.89    1.68
 -13   0   5    7.00    1.49
  13   0   5    8.54    2.77
 -13   0   5    3.10    1.74
 -13   0   6    0.47    1.25
 -13   0   6    2.21    1.58
 -13   0   6    3.06    1.44
 -13   0   6    2.27    1.66
  13   0   6   -0.09    2.77
 -13   0   6   -0.54    1.74
 -13   0   7    0.68    1.43
 -13   0   7    1.34    1.67
 -13   0   7   -0.70    1.50
 -13   0   7   -1.64    1.17
 -13   0   8    3.28    1.16
 -13   0   8    2.62    1.30
 -13   0   9    2.66    0.81
 -13   1   9   11.61    1.04
 -13   1   8    0.33    1.22
 -13   1   8    2.10    1.12
 -13   1   7    7.44    1.28
 -13   1   7   10.04    1.54
 -13   1   7    9.55    1.72
 -13   1   6   31.23    2.11
 -13   1   6   34.76    2.41
 -13   1   6   33.81    2.47
 -13   1   6   28.51    2.66
  13  -1   6   29.11    3.76
 -13   1   5    9.00    1.72
 -13   1   5    8.52    1.56
  13  -1   5    3.85    2.79
 -13   1   4   10.81    1.46
 -13   1   4    8.76    1.67
 -13   1   4   11.36    1.63
  13  -1   4    8.26    2.63
 -13   1   3    7.86    1.30
 -13   1   2   75.98    3.76
 -13   1   2   69.87    4.31
 -13   1   1    2.96    1.43
 -13  -1  -1    4.72    0.99
 -13  -1  -1    4.12    1.01
 -13  -1   0   18.54    1.76
 -13  -1   0   21.83    1.41
 -13   1   0   18.00    1.47
 -13  -1   1    3.03    1.53
 -13  -1   2   79.40    4.11
 -13  -1   2   73.41    3.55
 -13  -1   3    6.39    1.81
  13   1   3    6.10    2.14
 -13  -1   3    7.89    1.50
 -13  -1   4   11.67    1.91
  13   1   4    7.70    2.38
 -13  -1   4   10.72    1.67
 -13  -1   5    4.38    1.94
 -13  -1   5    9.80    1.54
  13   1   5    8.90    2.58
 -13  -1   5    6.50    1.74
 -13  -1   5    7.22    1.75
 -13  -1   6   29.35    2.16
 -13  -1   6   27.39    2.82
 -13  -1   6   32.21    2.37
 -13  -1   6   36.47    2.57
 -13  -1   6   39.08    2.54
  13   1   6   24.32    3.35
 -13  -1   7    9.50    1.60
 -13  -1   7    9.98    1.70
 -13  -1   7    7.29    1.35
 -13  -1   8    1.40    1.32
 -13  -1   8    3.67    1.16
 -13  -1   9   10.45    0.97
 -13   2   9    7.38    0.90
 -13   2   8   12.65    1.48
 -13   2   8   14.77    1.40
 -13   2   7    1.73    1.52
 -13   2   7    1.82    1.36
 -13   2   6    5.18    1.58
 -13   2   6    1.34    1.18
  13  -2   6    4.03    3.12
 -13   2   6    7.43    1.72
 -13   2   6    5.29    1.55
 -13   2   6    0.85    1.65
 -13   2   6    4.49    0.92
 -13   2   5   39.60    2.98
 -13   2   5   39.47    2.43
 -13   2   5   41.22    2.84
 -13   2   5   45.87    2.77
  13  -2   5   46.79    4.25
 -13   2   5   46.44    2.94
 -13   2   5   39.28    2.89
 -13   2   4   11.77    1.49
 -13   2   4   12.92    1.59
 -13   2   4   13.79    1.74
 -13   2   4   10.78    1.84
 -13   2   3   17.51    1.54
 -13   2   2   69.64    3.54
 -13   2   2   70.59    3.59
 -13  -2  -1  176.50    8.48
 -13   2   1  160.74    8.38
 -13  -2  -1  184.03    8.39
 -13  -2   0  140.59    6.99
 -13  -2   0  136.68    6.70
 -13  -2   1  177.63    8.94
  13   2   2   78.58    4.04
 -13  -2   2   87.03    4.28
 -13  -2   2   74.71    3.73
  13   2   3   24.95    2.35
 -13  -2   3   18.16    2.24
 -13  -2   3   19.91    1.95
 -13  -2   4   13.91    1.99
  13   2   4   11.62    2.40
 -13  -2   4   12.39    1.73
 -13  -2   5   40.22    3.36
 -13  -2   5   46.32    3.07
 -13  -2   5   46.42    2.88
  13   2   5   46.09    3.73
 -13  -2   5   51.99    3.62
 -13  -2   5   48.42    3.09
 -13  -2   6    4.64    1.43
 -13  -2   6    4.72    1.41
 -13  -2   6    5.26    1.73
 -13  -2   6    2.09    1.62
  13   2   6    3.92    2.50
 -13  -2   7    1.54    1.43
 -13  -2   7    1.75    1.54
 -13  -2   8   16.91    1.49
 -13  -2   8   15.33    1.62
 -13  -2   9    8.73    0.89
 -13   3   9    2.56    0.78
 -13   3   8    7.20    1.25
 -13   3   7   12.14    1.63
 -13   3   7   12.46    1.69
 -13   3   7   11.67    1.54
 -13   3   6    0.84    1.46
 -13   3   6    2.37    1.58
 -13   3   6    1.64    1.61
 -13   3   5    3.51    0.93
 -13   3   5    2.66    1.77
 -13   3   5    2.47    1.05
 -13   3   5    4.63    1.46
  13  -3   5    0.68    2.98
 -13   3   5    3.91    1.67
 -13   3   5    3.45    1.54
 -13   3   5    2.57    1.46
 -13   3   5    4.14    1.53
 -13   3   4    1.87    1.25
 -13   3   4   -0.35    1.49
 -13   3   4    2.41    1.63
 -13   3   4    3.16    1.44
 -13   3   4    2.65    0.91
 -13   3   3   11.46    1.29
 -13   3   3   11.23    1.12
 -13   3   2   82.68    4.55
 -13   3   2  103.24    4.62
 -13   3   1   55.51    2.69
 -13  -3  -1   50.21    2.61
 -13  -3   0    9.56    1.48
 -13  -3   0   11.08    1.08
 -13  -3   1   36.25    2.07
 -13  -3   1   43.44    2.67
 -13  -3   2   80.60    4.10
 -13   3  -2   81.38    3.86
 -13  -3   2   86.03    4.47
 -13  -3   3   13.34    1.77
 -13   3  -3    9.95    1.29
 -13  -3   3    8.59    1.90
  13   3   3    9.67    1.82
 -13  -3   4    4.62    1.84
  13   3   4    2.09    1.89
 -13  -3   4    2.13    1.47
 -13  -3   5    3.73    1.29
 -13  -3   5    4.87    2.05
 -13  -3   5    2.77    1.34
 -13  -3   5    2.37    1.95
  13   3   5    2.03    2.13
 -13  -3   5    0.95    1.60
 -13  -3   5    2.37    1.67
 -13  -3   6    2.50    1.43
 -13  -3   6    2.10    1.35
 -13  -3   6    2.26    1.67
 -13  -3   6    2.75    1.63
  13   3   6    2.68    2.23
 -13  -3   6    3.94    2.23
 -13  -3   7   10.89    1.67
 -13  -3   7   10.22    1.61
 -13  -3   8    5.68    1.14
 -13  -3   8    5.31    1.37
 -13  -3   9    2.80    0.67
 -13   4   9   15.93    1.10
 -13   4   8    2.66    1.13
 -13   4   7    5.57    1.45
 -13   4   6    2.25    1.47
 -13   4   6    0.63    1.49
  13  -4   6    5.78    3.28
 -13   4   5   17.07    2.11
  13  -4   5   21.07    3.64
 -13   4   5   13.46    1.22
 -13   4   5   17.64    1.89
 -13   4   5   20.73    2.00
 -13   4   5   18.17    1.80
 -13   4   5   19.53    1.87
 -13   4   4   49.07    2.85
 -13   4   4   46.53    2.85
 -13   4   4   47.32    2.85
 -13   4   4   49.00    3.00
 -13   4   4   47.72    2.92
 -13   4   4   43.85    2.49
 -13   4   4   43.98    2.99
 -13   4   4   40.51    2.79
 -13   4   3   78.11    3.99
 -13   4   3   80.48    4.15
  13   4  -3   77.42    4.29
 -13   4   2  103.51    5.34
 -13   4   2  112.06    5.35
 -13   4   1   81.40    4.42
 -13  -4  -1   93.34    4.39
 -13  -4   0   56.66    2.82
 -13   4   0   37.88    2.26
 -13   4  -1   65.56    3.49
 -13  -4   1   89.34    4.14
 -13  -4   2  123.04    5.94
 -13  -4   2  128.89    6.24
 -13   4  -3   76.40    4.40
 -13  -4   3   90.80    4.80
  13   4   3   84.90    4.52
 -13  -4   3   91.66    5.00
 -13   4  -4   43.06    3.05
  13   4   4   48.07    3.25
 -13  -4   4   51.44    3.52
 -13  -4   5   18.57    1.77
 -13  -4   5   21.18    2.64
  13   4   5   15.08    2.27
 -13  -4   5   18.99    1.74
 -13  -4   5   17.86    2.04
 -13  -4   5   18.56    2.53
  13   4   5   20.00    1.78
 -13  -4   6    4.50    1.44
 -13  -4   6    4.88    1.70
 -13  -4   6    1.20    1.99
 -13  -4   6    3.03    2.27
 -13  -4   7    4.98    1.51
 -13  -4   7    5.52    1.48
 -13  -4   8    3.78    1.32
 -13  -4   8    1.97    1.00
 -13   5   9    1.76    0.62
 -13   5   8    1.10    1.05
 -13   5   7    5.62    1.43
 -13   5   6    4.49    1.43
 -13   5   6    3.16    1.37
  13  -5   6    6.47    3.40
 -13   5   5    2.36    1.73
  13  -5   5    0.22    3.18
 -13   5   5    5.03    1.60
 -13   5   5    3.32    1.39
 -13   5   5    2.46    1.40
 -13   5   5    2.05    1.39
 -13   5   5    3.58    1.45
 -13   5   5    4.26    1.57
 -13   5   4    9.59    1.64
 -13   5   4    8.56    1.73
 -13   5   4    8.22    1.51
 -13   5   4    9.90    1.54
 -13   5   4    8.43    1.57
 -13   5   4   10.88    1.43
  13   5  -4   10.59    1.80
 -13   5   4    8.72    1.37
 -13   5   4    8.70    1.44
 -13   5   4    6.57    0.94
 -13   5   3    8.95    1.24
  13   5  -3    9.82    1.50
 -13   5   3    9.54    1.02
 -13   5   2   31.66    1.76
  13   5  -2   29.02    1.98
 -13   5   1   38.20    2.42
 -13  -5  -1   37.04    2.06
 -13   5   0   52.21    2.86
 -13   5  -1   40.41    2.29
 -13   5  -2   29.45    1.87
 -13  -5   2   25.83    2.49
 -13  -5   3    8.72    1.93
 -13   5  -3    9.87    1.32
 -13  -5   3    8.18    1.97
  13   5   4    9.15    1.45
 -13  -5   4    6.59    1.31
 -13   5  -4    8.29    1.52
 -13  -5   4    7.19    2.16
 -13  -5   4    6.58    1.57
  13   5   5    2.39    1.41
 -13  -5   5    3.27    2.23
 -13  -5   5    6.32    1.50
 -13  -5   5    2.36    2.07
 -13  -5   5    2.96    1.24
 -13  -5   5    1.48    1.66
 -13   5  -5    1.76    1.56
 -13  -5   6    1.75    1.60
 -13  -5   6    4.87    1.47
 -13  -5   6    2.53    2.03
 -13  -5   7    6.84    1.37
 -13  -5   7    5.15    1.46
 -13  -5   8    2.60    0.91
 -13  -5   8    2.60    1.25
 -13   6   9    7.45    0.67
 -13   6   8    1.01    0.98
 -13   6   7    2.33    1.13
 -13   6   6    5.63    1.40
 -13   6   6    6.21    1.35
  13  -6   6    7.05    3.48
 -13   6   5   80.95    4.33
 -13   6   5   80.86    4.34
 -13   6   5   83.95    4.41
 -13   6   5   85.41    4.34
 -13   6   5   75.57    4.52
 -13   6   5   72.22    4.54
  13   6  -4   25.79    2.39
 -13   6   4   31.37    2.02
 -13   6   4   27.42    2.15
 -13   6   4   28.32    2.03
 -13   6   4   24.72    2.04
 -13   6   4   25.26    2.01
 -13   6   4   28.93    2.03
 -13   6   4   26.26    2.12
 -13   6   4   26.02    2.32
 -13   6   3   34.45    2.16
 -13   6   3   33.05    2.56
 -13   6   3   28.33    1.87
  13   6  -2   44.08    2.67
 -13   6   1   28.07    2.10
 -13   6   0  161.28    7.96
 -13   6  -1   28.49    1.86
 -13   6  -2   35.56    2.30
 -13  -6   2   41.36    2.94
 -13   6  -3   33.61    2.38
 -13  -6   3   42.83    3.05
 -13  -6   3   37.70    3.08
 -13  -6   4   29.08    2.95
 -13   6  -4   27.16    2.25
 -13  -6   4   28.78    2.22
  13   6   4   30.88    2.20
 -13  -6   5   97.41    5.47
 -13  -6   5   84.04    4.55
 -13   6  -5   71.42    4.72
 -13  -6   5   87.63    4.67
  13   6   5   81.89    4.56
 -13  -6   5   91.42    5.42
 -13  -6   6    4.67    1.62
  13   6   6    5.96    1.33
 -13  -6   6    4.97    2.16
 -13  -6   6    5.51    1.55
 -13  -6   7    1.77    1.24
 -13   6  -7    1.66    1.01
 -13  -6   7    2.60    1.30
 -13  -6   8    2.74    1.15
  13   6   9    8.85    0.78
 -13   7   9    1.56    0.42
 -13   7   8    1.49    0.93
 -13   7   6   15.42    1.56
 -13   7   6   14.16    1.66
 -13   7   5   57.46    3.19
 -13   7   5   54.82    3.15
 -13   7   5   56.13    3.27
 -13   7   5   47.13    3.35
 -13   7   5   59.91    3.17
 -13   7   5   50.71    3.40
 -13   7   4   29.88    1.96
 -13   7   4   27.97    2.14
 -13   7   4   30.52    2.10
 -13   7   4   30.31    1.98
 -13   7   4   26.90    1.99
 -13   7   4   23.41    2.07
  13   7  -4   24.79    2.38
 -13   7   4   29.93    2.42
 -13   7   4   26.97    2.15
 -13   7   3   41.47    2.79
 -13   7   3   52.31    2.70
 -13   7   3   46.07    2.79
 -13   7   3   45.08    2.55
 -13   7   3   39.99    2.64
 -13   7   3   51.58    3.11
  13   7  -3   38.31    2.88
  13   7  -2   13.42    1.59
 -13   7   2   17.23    1.97
  13   7  -1    7.77    1.30
 -13   7   1    9.62    1.60
 -13   7   0   16.57    1.62
 -13   7  -1    7.98    1.25
 -13   7  -2   17.00    1.57
 -13   7  -3   41.78    2.62
 -13   7  -3   41.92    2.44
 -13  -7   3   44.81    3.35
 -13   7  -4   26.55    1.90
 -13   7  -4   26.01    2.21
  13   7   4   27.40    2.14
 -13  -7   4   23.24    2.96
 -13  -7   5   47.30    3.05
 -13  -7   5   47.53    3.96
 -13  -7   5   44.60    3.01
 -13  -7   5   48.62    3.83
  13   7   5   50.95    3.02
 -13  -7   6   13.81    1.68
 -13   7  -6   12.11    1.46
  13   7   6   11.69    1.59
 -13  -7   6   15.40    1.76
 -13  -7   7    1.46    1.11
 -13   7  -7    0.04    1.02
 -13  -7   7    1.54    1.16
 -13  -7   8    1.18    1.02
 -13   8   6    3.69    1.30
 -13   8   5   23.57    1.87
 -13   8   5   25.97    1.83
 -13   8   5   23.32    1.76
 -13   8   5   19.13    2.01
 -13   8   5   24.41    2.17
 -13   8   4  154.88    7.60
 -13   8   4  160.29    7.60
 -13   8   4  152.12    7.68
 -13   8   4  158.25    7.71
 -13   8   4  139.50    7.78
 -13   8   4  151.48    7.83
 -13   8   4  153.95    7.78
 -13   8   3    7.49    1.40
 -13   8   3    6.44    1.88
 -13   8   3    9.60    1.51
 -13   8   3    8.80    1.05
  13   8  -3    8.71    1.65
 -13   8   3    8.80    1.28
 -13   8   3    8.24    1.18
 -13   8   2   18.03    2.09
 -13   8   2   18.42    2.03
  13   8  -2   21.88    1.84
 -13   8   1   19.80    2.10
  13   8  -1   28.09    1.99
 -13   8   0    2.19    1.34
 -13   8  -1   21.86    1.81
 -13   8  -1   19.91    1.70
 -13   8  -2   15.15    1.62
 -13   8  -2   17.70    1.56
 -13   8  -2   16.36    1.51
  13   8   3    9.75    1.54
 -13   8  -3    9.86    1.48
 -13   8  -3    7.35    1.28
 -13   8  -4  175.89    8.34
 -13  -8   4  167.05    8.41
  13   8   4  176.06    8.48
 -13  -8   4  186.15    9.28
 -13   8  -5   26.37    1.99
 -13  -8   5   24.38    2.28
 -13  -8   5   25.68    2.13
  13   8   5   26.56    2.16
 -13  -8   5   25.23    3.21
 -13  -8   5   28.83    3.16
 -13   8  -6    3.19    1.23
 -13  -8   6    5.22    1.42
  13   8   6    3.45    1.37
 -13  -8   6    4.88    1.38
 -13   8  -7   12.60    1.31
 -13   9   7    8.19    1.18
 -13   9   6    4.02    1.27
 -13   9   5   20.68    1.71
 -13   9   5   18.57    1.89
 -13   9   4  127.30    6.36
 -13   9   4  128.86    6.48
 -13   9   4  126.24    6.39
 -13   9   4  130.04    6.60
 -13   9   4  128.24    6.65
 -13   9   3   15.19    1.41
 -13   9   3   17.16    2.17
 -13   9   3   11.78    1.66
 -13   9   3   13.34    1.30
 -13   9   3   12.76    1.34
 -13   9   2   10.38    1.82
 -13   9   2    7.29    1.19
 -13   9   2    7.24    1.36
 -13   9   2    8.71    1.94
  13   9  -2    7.29    1.58
 -13   9   2    9.02    1.32
 -13   9   2    8.11    1.22
 -13   9   1   18.10    1.69
 -13   9   1   19.14    1.61
  13   9  -1   18.49    1.91
 -13   9   1   22.89    2.20
 -13   9   1   22.78    1.87
 -13   9   0   11.15    1.45
 -13   9   0   14.04    1.78
 -13   9   0   13.41    1.57
 -13   9  -1   21.64    1.76
 -13   9  -1   18.17    1.90
 -13   9  -1   22.49    1.76
 -13   9  -2    6.59    1.31
 -13   9  -2    9.25    1.39
 -13   9  -2    9.07    1.03
 -13   9  -2    8.15    1.43
 -13   9  -3   12.22    1.47
 -13   9  -3   13.81    1.49
 -13   9  -3   12.61    1.65
 -13   9  -3   14.43    1.23
 -13  -9   3   13.14    2.42
 -13   9  -4  116.07    5.92
 -13  -9   4  104.79    6.00
 -13   9  -4  117.78    6.18
 -13  -9   4  110.41    6.87
  13   9   4  124.06    6.07
 -13  -9   5   16.11    2.03
 -13  -9   5   12.23    2.59
 -13   9  -5   19.90    1.70
 -13  -9   5   12.96    1.66
  13   9   5   17.96    1.85
  13   9   6    2.23    1.31
 -13   9  -6    1.75    1.20
 -13   9  -7    6.00    1.10
 -13  10   7    2.00    0.96
 -13  10   6    2.63    1.15
 -13  10   5    6.82    1.29
 -13  10   4   15.53    1.72
 -13  10   4   15.70    1.94
 -13  10   4   14.14    1.47
 -13  10   3   18.76    1.60
 -13  10   3   17.46    1.46
  13  10  -3   17.24    1.51
 -13  10   3   19.71    1.90
 -13  10   3   18.74    2.33
 -13  10   2   10.96    1.38
 -13  10   2   11.56    1.45
 -13  10   2   12.81    2.20
 -13  10   2   12.29    1.57
 -13  10   2    9.61    1.95
 -13  10   1   12.65    2.00
 -13  10   1   10.45    1.40
 -13  10   1   13.52    1.70
 -13  10   1   10.67    1.46
 -13  10   0    6.24    1.54
 -13  10   0    5.21    1.65
 -13  10  -1   11.21    1.72
  13  10   1   14.06    1.44
 -13  10  -1    9.91    1.58
 -13  10  -1   12.53    1.56
 -13  10  -2   10.26    1.17
 -13  10  -2    9.19    1.48
 -13  10  -2   12.31    1.63
  13  10   2   13.14    1.46
  13  10   2   13.13    1.66
 -13  10  -2   11.41    1.46
 -13  10  -3   19.18    1.75
 -13  10  -3   19.62    1.96
 -13  10  -3   17.80    1.75
 -13  10  -3   18.28    1.44
 -13 -10   3   20.76    2.75
 -13  10  -4   16.43    1.66
 -13 -10   4   18.96    3.05
  13  10   4   14.37    1.89
 -13  10  -4   11.66    1.32
 -13  10  -5    7.60    1.46
  13  10   5    8.18    1.60
 -13 -10   5   11.41    2.60
 -13 -10   5    7.91    1.85
 -13  10  -6    3.55    1.23
  13  10   6    3.06    1.30
 -13  10  -7    1.24    1.00
  13  10   7    0.83    1.10
 -13  11   8    6.26    0.60
 -13  11   7    1.21    0.84
 -13  11   6    3.57    1.09
 -13  11   5    2.19    1.11
  13  11  -5    0.76    1.17
  13  11  -4   16.49    1.60
 -13  11   4   17.97    1.78
 -13  11   4   18.99    1.86
 -13  11   4   19.32    1.51
 -13  11   3   31.85    2.49
 -13  11   3   33.33    2.03
 -13  11   3   32.13    2.24
  13  11  -3   34.64    2.19
 -13  11   3   39.64    2.99
 -13  11   2    1.77    1.21
 -13  11   2    1.32    1.21
  13  11  -2    2.29    1.12
 -13  11   2    2.05    1.41
 -13  11   2    3.55    1.87
 -13  11   2    4.09    2.08
 -13  11   1   21.37    1.78
 -13  11   1   19.10    2.35
 -13  11   1   19.60    2.04
  13  11  -1   14.71    1.68
 -13  11   1   21.93    1.84
 -13  11   0   54.16    3.54
 -13  11   0   61.93    3.30
  13  11   1   20.63    1.73
 -13  11  -1   17.34    2.06
 -13  11  -1   22.75    1.93
  13  11   1   16.29    1.88
 -13  11  -1   20.56    1.98
 -13  11  -2    2.21    1.29
 -13  11  -2    2.42    1.34
 -13  11  -2    2.89    1.56
 -13  11  -2    3.10    1.02
  13  11   2    4.65    1.58
  13  11   2    4.78    1.41
 -13  11  -3   33.12    2.39
 -13  11  -3   33.09    2.14
 -13  11  -3   33.22    2.64
  13  11   3   37.98    2.37
 -13 -11   3   35.15    3.39
  13  11   3   37.20    2.63
 -13  11  -3   34.76    2.37
  13  11   4   15.56    1.72
 -13  11  -4   17.89    1.47
  13  11   4   15.98    1.93
 -13  11  -4   18.58    1.75
 -13  11  -5    0.89    1.23
  13  11   5    2.09    1.43
 -13  11  -6    1.36    1.15
  13  11   6    2.47    1.27
 -13  11  -7    1.21    0.89
 -13  12   7    6.00    0.81
 -13  12   6    4.00    1.00
  13  12  -5    6.58    1.20
 -13  12   5    6.32    1.13
 -13  12   4   11.67    1.26
  13  12  -4   14.81    1.44
 -13  12   3   25.65    1.99
 -13  12   3   27.66    1.74
  13  12  -3   29.02    1.95
 -13  12   3   25.25    2.23
 -13  12   3   27.66    2.72
 -13  12   2   18.77    1.76
 -13  12   2   19.19    2.39
 -13  12   2   15.71    2.65
 -13  12   2   17.03    1.62
  13  12  -2   20.25    1.64
 -13  12   2   15.61    1.93
 -13  12   1    0.20    1.31
 -13  12   1    2.57    2.00
 -13  12   1    2.80    1.23
 -13  12   1    3.65    1.75
 -13  12   1    1.55    1.39
 -13  12   0    7.10    2.00
 -13  12   0    5.35    1.69
  13  12   0    5.59    1.48
 -13  12  -1    0.99    1.36
  13  12   1    2.33    1.51
 -13  12  -1    2.82    1.74
  13  12   1    0.33    1.39
 -13  12  -1    0.66    1.45
 -13  12  -2   19.57    1.90
 -13  12  -2   19.23    1.92
  13  12   2   16.89    1.99
 -13  12  -2   17.75    2.15
 -13  12  -2   17.09    1.53
  13  12   2   22.89    1.83
 -13  12  -3   26.37    2.14
 -13 -12   3   29.41    3.16
  13  12   3   31.87    2.13
  13  12   3   31.37    2.37
 -13  12  -3   27.35    2.15
 -13  12  -3   23.56    1.84
 -13  12  -4   12.80    1.66
  13  12   4   13.40    1.63
  13  12   5    4.67    1.43
 -13  12  -5    3.46    1.35
  13  12   5    6.26    1.44
 -13  12  -6    3.05    1.16
  13  12   6    3.61    1.22
 -13  12  -7    4.54    0.91
 -13  13   5    0.46    0.92
  13  13  -4    9.99    1.36
 -13  13   4   14.59    1.22
  13  13  -3    6.17    1.23
 -13  13   3    1.98    1.49
 -13  13   3    5.21    1.29
 -13  13   3    4.63    2.05
 -13  13   2    7.85    2.39
 -13  13   2    9.40    1.67
  13  13  -2    9.14    1.35
 -13  13   2    8.34    1.54
 -13  13   2   10.37    2.06
 -13  13   1    3.02    1.37
 -13  13   1    3.63    2.19
 -13  13   1    4.44    1.27
 -13  13   1    0.87    1.84
 -13  13   1    4.15    1.54
  13  13   0    2.69    1.43
 -13  13   0    2.48    2.01
 -13  13   0    3.57    1.74
 -13  13  -1    1.23    1.54
  13  13   1    2.67    1.53
 -13  13  -1    2.72    1.85
 -13  13  -1    2.88    1.45
  13  13   1    3.46    1.50
  13  13   2    7.48    1.73
 -13  13  -2    5.70    1.61
  13  13   2    8.88    1.60
 -13  13  -2   11.10    1.62
 -13 -13   3    9.11    2.42
 -13  13  -3    5.19    1.38
 -13  13  -3    6.16    1.56
 -13  13  -3    4.56    1.13
  13  13   3    5.04    1.61
  13  13   3    4.72    1.46
  13  13   4   11.57    1.56
 -13  13  -4   12.03    1.60
  13  13   5   -2.15    1.34
  13  13   5    0.50    1.30
 -13  13  -5    0.72    1.24
  13  13   6    5.18    1.17
  13  13   6    3.91    1.03
 -13  13  -6    4.31    1.11
 -13  13  -7    6.17    0.83
 -13  14   3    5.52    1.28
 -13  14   3    3.11    1.41
  13  14  -3    5.22    1.24
 -13  14   2    4.59    1.92
 -13  14   2    1.34    1.54
 -13  14   2    1.31    1.32
 -13  14   1    4.67    1.47
 -13  14   1    7.44    1.57
 -13  14   1    6.34    1.17
 -13  14   1    8.43    1.91
 -13  14   0    7.14    1.51
  13  14   0    8.76    1.52
 -13  14   0    5.02    1.77
  13  14   1    7.44    1.61
 -13  14  -1    5.09    1.73
 -13  14  -1    4.13    1.50
 -13  14  -2   -0.11    1.55
  13  14   2    4.09    1.57
  13  14   2    2.69    1.52
 -13  14  -2    1.88    1.37
 -13  14  -3    4.49    1.50
  13  14   3    5.14    1.59
  13  14   3    6.88    1.53
 -13  14  -3    7.08    1.40
  13  14   4   12.01    1.65
  13  14   4   12.21    1.55
 -13  14  -4   12.72    1.66
  13  14   5    2.85    1.20
 -13  14  -5    0.57    1.16
 -13  14  -6   -0.09    1.01
  13  14   6    2.61    1.01
  13  14   6    1.52    0.87
 -13  15   3    3.01    1.19
 -13  15   3    1.88    1.29
 -13  15   2    6.97    1.62
 -13  15   2    5.75    1.42
 -13  15   1    3.64    1.47
 -13  15   1    2.74    1.41
 -13  15   1    3.12    1.77
 -13  15   0    1.63    1.42
 -13  15   0    1.78    1.40
  13  15   0    0.32    1.27
 -13  15   0    3.17    1.71
  13  15   1    2.69    1.43
 -13  15  -1    2.49    1.59
 -13  15  -1    3.05    1.42
  13  15   2    6.86    1.56
 -13  15  -2    6.17    1.68
 -13  15  -2    8.96    1.48
 -13  15  -3    3.17    1.48
  13  15   3    3.48    1.49
  13  15   3    3.20    1.43
 -13  15  -4    1.62    1.39
  13  15   4    2.65    1.32
  13  15   4    4.17    1.33
 -13  15  -5    6.31    1.30
  13  15   5    6.68    1.22
  13  15   6    1.38    0.73
  13  15   6    1.38    0.89
 -13  15  -6    0.23    0.86
 -13  16   3    4.69    1.12
 -13  16   2   17.56    1.68
 -13  16   1    7.89    1.48
  13  16   0    4.19    1.24
 -13  16   0    6.39    1.51
 -13  16   0    6.13    1.73
  13  16   1    6.49    1.39
 -13  16  -1    7.83    1.52
 -13  16  -1    8.05    1.73
 -13  16  -2   21.13    2.03
  13  16   2   20.64    1.87
 -13  16  -2   20.56    1.86
  13  16   3    3.95    1.34
 -13  16  -3    5.48    1.51
 -13  16  -4    1.73    1.36
 -13  16  -5    2.44    1.12
  13  16   6    1.09    0.52
 -13  16  -6    1.87    0.68
 -13  17   2    6.58    1.26
 -13  17   1    8.57    1.38
 -13  17   0   10.22    1.47
  13  17   1    5.50    1.26
 -13  17  -1    8.14    1.37
 -13  17  -1    8.34    1.63
  13  17   2    7.09    1.33
 -13  17  -2    8.45    1.33
 -13  17  -2    8.15    1.59
 -13  17  -3    0.22    1.34
 -13  17  -4    1.04    1.16
  13  17   4    1.39    0.94
 -13  17  -5    5.91    0.96
 -13  18   2    0.86    1.01
 -13  18   2   -0.17    1.44
 -13  18   0    9.54    1.35
 -13  18  -1    3.67    1.19
  13  18   1    5.05    0.98
 -13  18  -2    2.15    1.32
  13  18   2    0.28    0.93
 -13  18  -3    1.37    1.17
  13  18   3    1.36    0.91
 -13  18  -4    3.01    1.02
  13  18   4    1.55    0.79
 -13  18  -5    3.97    0.62
  13  18   5    2.12    0.49
 -13  19   2    0.71    0.84
 -13  19   1    4.36    1.32
 -13  19   0    5.28    1.08
 -13  19  -1    4.16    1.04
  13  19   2    0.57    0.72
 -13  19  -3    4.51    1.05
  13  19   3    1.40    0.70
 -13  19  -4    3.29    0.73
  13  19   4    2.44    0.52
 -13  20   2    0.73    0.62
 -13  20   0    1.37    0.83
 -13  20   0    2.06    1.10
 -13  21   0    0.23    0.61
 -13  21  -1    5.19    0.74
 -14   0   0   24.49    1.62
 -14   0   0   23.45    1.93
 -14   0   1    6.10    1.59
 -14   0   1    7.17    1.03
 -14   0   2  129.54    6.89
 -14   0   3   13.11    1.37
 -14   0   3   16.66    2.16
 -14   0   4    8.53    1.67
 -14   0   4    9.79    1.66
  14   0   4    6.03    2.50
 -14   0   4    6.65    1.44
 -14   0   5    3.56    1.72
 -14   0   5    7.10    1.55
  14   0   5    6.92    2.78
 -14   0   5    6.55    1.57
 -14   0   6   18.17    2.04
 -14   0   6   18.87    1.90
 -14   0   6   14.31    1.48
  14   0   6   17.01    3.11
 -14   0   6   16.28    1.99
 -14   0   7    3.48    1.42
 -14   0   7    2.05    1.54
 -14   0   7    1.02    1.62
 -14   0   8    8.68    1.27
 -14   0   8   10.33    1.38
 -14   0   9   22.06    1.36
 -14   1   9    4.66    0.79
 -14   1   8    8.26    1.23
 -14   1   8    7.09    1.32
 -14   1   7    2.76    1.39
 -14   1   7    2.05    1.59
 -14   1   6    7.14    1.62
  14  -1   6    5.52    2.94
 -14   1   6    4.89    1.15
 -14   1   6   11.79    1.75
 -14   1   5   12.82    1.69
  14  -1   5   10.29    3.03
 -14   1   5   11.22    1.74
  14  -1   4    0.89    2.56
 -14   1   4    3.42    1.57
 -14   1   4    4.27    1.30
 -14   1   3   24.66    1.75
 -14   1   2   24.30    2.31
 -14  -1  -1   47.64    2.67
 -14   1   0   17.84    1.43
 -14  -1   0   20.45    1.40
 -14  -1   1   43.55    2.93
 -14  -1   2   29.19    2.51
 -14  -1   3   25.37    1.86
  14   1   3   18.68    2.57
 -14  -1   3   21.20    2.42
  14   1   4    3.60    2.28
 -14  -1   4    3.14    1.91
 -14  -1   4    4.45    1.59
 -14  -1   4    4.51    1.54
  14   1   5    9.32    2.66
 -14  -1   5    9.92    1.60
 -14  -1   5   11.22    1.80
 -14  -1   5    8.52    1.85
 -14  -1   5    9.82    1.87
 -14  -1   6    7.17    1.56
 -14  -1   6    8.92    1.88
 -14  -1   6    8.93    1.76
 -14  -1   6    5.28    1.26
 -14  -1   7    3.34    1.56
 -14  -1   7    0.68    1.42
 -14  -1   8    7.21    1.21
 -14  -1   8    5.61    1.33
 -14  -1   9    4.59    0.77
 -14   2   9    0.25    0.70
 -14   2   8    8.02    1.20
 -14   2   8   10.15    1.33
 -14   2   7    1.16    1.34
 -14   2   7    2.51    1.49
 -14   2   6    5.96    1.68
 -14   2   6    7.71    1.60
  14  -2   6   10.15    3.19
 -14   2   6    4.98    1.11
 -14   2   6    5.04    0.97
  14  -2   5   17.13    3.29
 -14   2   5   15.80    2.07
 -14   2   5   19.37    2.12
 -14   2   5   13.55    1.79
 -14   2   5   17.53    1.97
 -14   2   5   17.57    1.83
 -14   2   4    1.75    1.56
 -14   2   4    2.03    1.69
 -14   2   4    3.18    1.21
 -14   2   4    1.93    1.53
 -14   2   4    3.87    1.37
 -14   2   3    8.77    1.09
 -14   2   3    5.72    1.05
 -14   2   2   20.24    1.47
 -14   2   1   52.83    2.77
 -14  -2  -1   49.25    2.77
 -14  -2  -1   51.16    2.86
 -14  -2   0  142.40    6.57
 -14  -2   0  145.98    6.87
 -14  -2   1   44.77    2.97
  14   2   2   22.04    2.04
 -14  -2   2   22.94    2.33
 -14  -2   3   10.32    1.51
  14   2   3   11.23    2.00
 -14  -2   3    7.32    1.96
 -14  -2   4    3.53    1.94
  14   2   4    6.26    2.11
 -14  -2   4    4.65    1.56
 -14  -2   4    2.01    1.59
 -14  -2   5   19.64    2.50
  14   2   5   18.62    2.72
 -14  -2   5   19.91    1.88
 -14  -2   5   20.36    2.12
 -14  -2   5   16.32    2.23
 -14  -2   6    6.55    1.54
  14   2   6    7.76    2.59
 -14  -2   6    6.61    1.84
 -14  -2   6    4.98    1.71
 -14  -2   6    3.97    1.26
 -14  -2   7    3.50    1.46
 -14  -2   7    3.80    1.59
 -14  -2   8    9.31    1.43
 -14  -2   8    9.64    1.27
 -14  -2   9    0.80    0.66
 -14   3   9    1.75    0.67
 -14   3   8    3.00    1.15
 -14   3   7    6.61    1.42
 -14   3   7    5.24    1.50
 -14   3   7    6.14    1.48
 -14   3   6    1.46    1.55
 -14   3   6    1.59    1.48
  14  -3   6    6.21    3.13
 -14   3   5   -0.90    1.84
  14  -3   5    2.37    2.92
 -14   3   5    1.33    1.32
 -14   3   5    0.97    0.91
 -14   3   5    0.44    1.53
 -14   3   5    1.03    1.45
 -14   3   5    2.36    1.68
 -14   3   5    3.10    1.45
 -14   3   4    3.95    1.21
 -14   3   4    3.58    1.63
 -14   3   4    6.15    1.68
 -14   3   4    7.46    1.05
 -14   3   4    5.98    1.61
 -14   3   3    1.86    0.93
 -14   3   3    2.63    0.96
 -14   3   2   69.03    3.92
 -14   3   2  101.89    4.11
 -14  -3  -1   25.29    1.68
 -14  -3  -1   24.51    1.87
 -14  -3   0    3.90    0.94
 -14  -3   0    3.21    1.39
 -14  -3   1   24.86    2.20
 -14  -3   2   74.42    3.50
 -14  -3   2   84.83    4.13
 -14  -3   3    2.34    1.42
 -14  -3   3    1.62    1.76
  14   3   3    0.78    1.52
  14   3   4    4.66    1.84
 -14  -3   4    2.91    1.91
 -14  -3   4    6.29    1.60
 -14  -3   4    5.30    1.73
 -14  -3   5    0.49    1.80
 -14  -3   5    0.33    1.99
  14   3   5    0.49    2.02
 -14  -3   5    2.29    1.37
  14   3   5    1.05    1.22
 -14  -3   5    2.82    1.67
 -14  -3   6    2.32    1.71
 -14  -3   6    2.51    1.27
 -14  -3   6    3.68    1.38
 -14  -3   7    4.09    1.46
 -14  -3   7    7.50    1.62
 -14  -3   8    2.48    1.06
 -14  -3   8    2.35    1.31
 -14  -3   9    2.62    0.63
 -14   4   9    5.10    0.67
 -14   4   8    2.59    1.08
 -14   4   7    7.18    1.46
 -14   4   6    8.24    1.60
 -14   4   6    7.49    1.48
  14  -4   6    7.53    3.23
 -14   4   5    7.28    1.92
  14  -4   5   10.09    3.23
 -14   4   5    6.91    1.53
 -14   4   5    8.63    1.79
 -14   4   5    6.17    1.60
 -14   4   5    5.67    0.94
 -14   4   5    4.51    1.37
 -14   4   4   11.69    1.55
 -14   4   4   12.76    1.62
 -14   4   4   10.61    1.72
 -14   4   4    9.33    1.10
 -14   4   4    9.34    1.78
 -14   4   4   11.20    1.83
 -14   4   4    9.04    1.55
 -14   4   4   10.38    1.38
 -14   4   3   36.89    2.13
 -14   4   3   35.80    2.20
 -14   4   2   60.63    3.19
 -14  -4  -1   34.28    1.94
 -14   4   1   30.41    2.00
 -14  -4  -1   33.83    2.16
 -14  -4   0   38.36    2.13
 -14  -4   0   35.93    2.53
 -14  -4   1   35.13    2.62
 -14  -4   2   64.06    3.77
 -14  -4   2   52.94    3.22
 -14  -4   3   42.61    3.13
 -14  -4   3   42.06    2.71
 -14   4  -3   33.79    2.26
 -14  -4   4   12.90    1.78
 -14  -4   4   11.34    2.23
 -14  -4   4   14.03    2.08
 -14  -4   5    7.30    2.04
 -14  -4   5    7.82    2.21
 -14  -4   5    8.92    1.44
 -14  -4   5    4.35    1.73
  14   4   5    6.87    1.48
 -14  -4   6    8.38    1.41
 -14  -4   6    9.00    1.79
 -14  -4   6    9.64    1.44
 -14  -4   7   10.20    1.54
 -14  -4   7    7.67    1.59
 -14  -4   8    2.76    1.28
 -14  -4   8    1.17    0.98
 -14   5   9    1.17    0.53
 -14   5   8    1.25    1.02
 -14   5   7    3.75    1.21
 -14   5   6    9.67    1.57
  14  -5   6    6.70    3.35
 -14   5   6   10.08    1.53
 -14   5   5    1.91    1.59
 -14   5   5    5.63    1.43
 -14   5   5    4.38    1.87
 -14   5   5    2.87    1.49
 -14   5   5    6.41    1.54
  14  -5   5    4.35    3.30
 -14   5   5    2.09    1.54
 -14   5   4   32.87    2.49
 -14   5   4   27.99    2.27
 -14   5   4   27.71    2.11
 -14   5   4   38.40    2.22
 -14   5   4   31.42    2.38
 -14   5   4   30.97    2.47
 -14   5   4   27.15    1.83
 -14   5   4   31.80    2.24
 -14   5   4   33.00    2.28
 -14   5   3   10.64    1.22
 -14   5   3   11.54    1.14
 -14   5   3   13.09    1.63
 -14   5   3   12.13    1.58
 -14   5   2   12.53    1.19
 -14  -5  -1    4.49    0.87
 -14  -5   0    9.93    1.03
 -14  -5   1    6.42    1.65
 -14  -5   2    8.67    1.87
 -14  -5   2   10.69    1.62
 -14  -5   3   10.50    2.12
 -14   5  -3    9.28    1.24
 -14  -5   3    9.11    1.86
 -14  -5   4   26.61    2.04
 -14  -5   4   30.85    2.71
 -14  -5   4   28.96    2.32
 -14  -5   4   31.33    2.98
  14   5   5    4.78    1.46
 -14  -5   5    1.09    1.27
 -14  -5   5    1.92    2.11
 -14  -5   5    2.38    1.73
 -14  -5   6    6.20    2.17
 -14  -5   6    7.51    1.71
 -14  -5   6    5.87    1.39
 -14  -5   7    2.96    1.38
 -14  -5   7    2.24    1.40
 -14  -5   8    1.70    0.90
 -14  -5   8    1.12    1.21
 -14   6   9    0.94    0.43
 -14   6   8    0.85    0.96
 -14   6   7    4.43    1.17
 -14   6   6    9.94    1.42
 -14   6   6    8.56    1.50
 -14   6   6    8.38    1.45
 -14   6   5   20.60    1.92
 -14   6   5   22.96    1.93
 -14   6   5   24.84    2.02
 -14   6   5   21.97    1.87
 -14   6   5   20.25    2.29
 -14   6   4    3.90    1.19
 -14   6   4    4.29    1.51
 -14   6   4    5.09    1.36
 -14   6   4    3.07    1.24
 -14   6   4    2.48    1.52
 -14   6   4    4.14    1.78
 -14   6   4    4.06    1.45
 -14   6   4    2.95    1.36
 -14   6   4    4.81    1.35
 -14   6   3   35.93    2.31
 -14   6   3   33.30    2.06
 -14   6   3   36.76    2.24
 -14   6   3   35.96    2.20
 -14   6   3   33.64    2.36
 -14   6   3   36.59    2.48
 -14   6   3   40.07    2.49
 -14   6   1   18.72    1.67
 -14   6   0    2.63    1.06
 -14   6  -1   19.30    1.48
 -14   6  -2   11.57    1.25
 -14  -6   2   13.15    2.08
 -14  -6   3   44.97    2.64
 -14  -6   3   45.75    3.35
 -14  -6   3   48.22    3.18
 -14   6  -4    4.20    1.15
 -14  -6   4    5.09    2.13
 -14  -6   4    3.40    2.13
  14   6   4    6.94    1.50
 -14  -6   4    4.33    1.50
 -14   6  -5   25.29    1.79
  14   6   5   21.85    2.04
 -14  -6   5   19.80    2.19
 -14  -6   5   22.87    2.84
 -14  -6   6   11.18    1.72
 -14   6  -6    7.84    1.31
 -14  -6   7    4.19    1.33
 -14  -6   7    4.77    1.29
 -14  -6   8    2.05    0.76
 -14  -6   8    0.52    1.12
 -14   7   6   14.66    1.60
 -14   7   6   15.60    1.53
 -14   7   5   41.00    2.50
 -14   7   5   39.36    2.49
 -14   7   5   39.27    2.62
 -14   7   5   38.38    2.53
 -14   7   5   38.36    2.85
 -14   7   4   21.44    1.86
 -14   7   4   21.27    1.84
 -14   7   4   26.41    2.09
 -14   7   4   25.23    1.83
 -14   7   4   25.50    1.97
 -14   7   4   25.04    1.86
 -14   7   4   22.56    2.08
 -14   7   4   27.75    2.31
 -14   7   3   10.64    2.01
 -14   7   3   12.49    1.66
 -14   7   3   14.71    1.49
 -14   7   3   15.14    1.35
 -14   7   3   14.02    1.55
 -14   7   3   13.38    1.37
 -14   7   3   12.71    1.62
 -14   7   2   12.01    1.81
 -14   7   1    1.41    1.29
 -14   7   0    7.65    1.31
 -14   7  -1    2.06    1.08
 -14   7  -2   16.47    1.39
 -14  -7   2   11.69    2.19
 -14   7  -2   10.34    1.36
 -14   7  -3   12.94    1.47
 -14  -7   3   11.41    2.25
 -14   7  -3   14.12    1.40
 -14  -7   3   10.25    2.29
  14   7   4   19.81    1.96
 -14   7  -4   18.39    1.68
 -14  -7   4   19.25    2.63
 -14  -7   4   22.87    2.91
 -14  -7   4   21.54    1.91
 -14  -7   5   32.54    2.26
 -14  -7   5   28.17    2.34
 -14   7  -5   25.63    2.04
  14   7   5   31.77    2.32
 -14  -7   5   32.50    3.23
 -14  -7   6   11.50    1.65
 -14   7  -6    8.59    1.32
  14   7   6   11.25    1.49
 -14  -7   7    1.74    1.11
 -14   7  -7    1.61    1.00
 -14  -7   7    3.61    1.17
 -14  -7   8    3.36    1.03
 -14   8   7    1.70    1.09
 -14   8   6   26.40    1.96
 -14   8   5    3.97    1.68
 -14   8   5    2.75    1.14
 -14   8   5    2.33    1.30
 -14   8   5    1.09    1.13
 -14   8   4   42.14    2.73
 -14   8   4   41.86    2.85
 -14   8   4   47.15    3.06
 -14   8   4   43.63    2.62
 -14   8   4   46.81    2.77
 -14   8   4   42.91    2.56
 -14   8   3    9.69    2.00
 -14   8   3    9.42    1.58
 -14   8   3    8.55    1.47
 -14   8   3    9.49    1.32
 -14   8   3    7.24    1.21
 -14   8   3   10.01    1.38
 -14   8   2    7.73    1.79
 -14   8   2    7.61    1.79
 -14   8   2    7.34    1.17
 -14   8   2    8.53    1.30
 -14   8   2    8.26    1.44
 -14   8   1    3.12    1.12
 -14   8   1    4.18    1.25
 -14   8   1    3.77    1.44
 -14   8   1    2.49    1.42
 -14   8   0    2.38    1.28
 -14   8   0    2.16    1.13
 -14   8  -1    2.21    1.23
 -14   8  -1    2.97    1.24
 -14   8  -1    2.96    1.16
 -14   8  -2    8.21    1.34
 -14   8  -2    8.22    1.29
 -14   8  -2    8.38    1.31
 -14  -8   3    8.86    2.27
 -14   8  -3    6.70    1.35
 -14   8  -3    8.57    1.32
 -14  -8   3    6.88    2.21
  14   8   4   49.66    3.11
 -14   8  -4   47.90    2.90
 -14   8  -5    2.22    1.23
 -14  -8   5    5.07    1.54
  14   8   5    1.06    1.45
 -14  -8   5    2.68    1.53
 -14  -8   5    2.32    2.22
 -14  -8   6   24.37    1.99
 -14  -8   6   26.59    2.09
  14   8   6   25.86    2.00
 -14   8  -6   25.34    1.88
 -14   8  -7    1.60    0.96
 -14  -8   8    5.26    0.88
 -14   9   7    5.31    1.09
 -14   9   6    3.58    1.22
 -14   9   5    4.23    1.25
 -14   9   5    3.09    1.57
 -14   9   4   36.08    2.37
 -14   9   4   35.44    2.19
 -14   9   4   38.52    2.62
 -14   9   4   34.93    2.70
 -14   9   4   36.33    2.28
 -14   9   3   22.38    1.67
 -14   9   3   23.13    1.70
 -14   9   3   22.75    1.90
 -14   9   3   26.31    1.80
 -14   9   3   27.05    2.47
 -14   9   3   22.92    2.07
 -14   9   2    1.07    1.06
 -14   9   2    1.88    1.13
 -14   9   2    0.03    1.18
 -14   9   2    0.91    1.64
 -14   9   2   -0.44    1.70
 -14   9   1   20.06    1.75
 -14   9   1   16.68    1.99
 -14   9   1   19.25    1.96
 -14   9   1   18.91    1.66
 -14   9   0    1.34    1.21
 -14   9   0    0.45    1.35
 -14   9   0    0.42    1.42
 -14   9  -1   20.40    1.82
 -14   9  -1   17.04    1.80
 -14   9  -1   20.88    1.76
  14   9   1   19.31    1.59
 -14   9  -2    0.39    1.18
 -14   9  -2    0.54    1.23
 -14   9  -2    1.53    1.22
 -14  -9   3   20.92    2.83
 -14   9  -3   20.21    1.78
 -14   9  -4   29.54    2.15
  14   9   4   30.50    2.45
 -14  -9   5    0.10    2.25
 -14   9  -5    3.15    1.31
 -14  -9   5    2.65    1.41
  14   9   5    6.00    1.53
 -14   9  -6    4.67    1.20
 -14  -9   6    2.89    1.27
 -14  -9   6    2.35    1.16
  14   9   6    4.07    1.32
 -14   9  -7    5.34    1.02
 -14  10   8    5.27    0.62
 -14  10   7    4.52    0.94
 -14  10   6    7.84    1.22
 -14  10   5    3.03    1.20
 -14  10   4    9.89    1.82
 -14  10   4   13.87    1.69
 -14  10   4    9.08    1.31
 -14  10   3   18.80    1.61
 -14  10   3   19.42    1.48
 -14  10   3   17.97    1.49
 -14  10   3   17.70    2.40
 -14  10   3   16.48    1.95
 -14  10   2   37.96    2.46
 -14  10   2   42.05    2.57
 -14  10   2   44.47    3.04
 -14  10   2   39.12    2.52
 -14  10   2   37.62    3.11
 -14  10   2   41.44    2.62
 -14  10   1    3.35    1.27
 -14  10   1    5.35    1.68
 -14  10   1    2.51    1.66
 -14  10   1    2.06    1.29
 -14  10   0    1.13    1.51
 -14  10   0    1.75    1.29
 -14  10   0    2.12    1.53
  14  10   1    4.00    1.23
 -14  10  -1    2.10    1.42
 -14  10  -1    2.21    1.47
 -14  10  -1    2.73    1.30
 -14  10  -2   39.63    2.89
 -14  10  -2   43.09    2.86
  14  10   2   51.12    3.02
  14  10   2   52.30    2.78
 -14  10  -2   46.83    2.93
 -14  10  -3   16.82    1.75
 -14 -10   3   22.86    2.83
 -14  10  -4   10.64    1.54
  14  10   4    8.94    1.72
 -14  10  -5    1.19    1.29
  14  10   5    3.31    1.52
 -14  10  -6    9.51    1.32
  14  10   6    8.27    1.41
  14  10   7    5.86    1.16
 -14  10  -7    3.39    0.94
 -14  11   7    6.98    0.89
 -14  11   6    2.63    1.01
 -14  11   5    8.79    1.22
 -14  11   4    5.38    1.59
 -14  11   4    7.77    1.49
 -14  11   4    5.58    1.12
 -14  11   3  118.61    5.81
 -14  11   3  111.92    6.00
 -14  11   3  116.27    6.19
 -14  11   3  127.28    6.50
 -14  11   2   16.71    1.68
 -14  11   2   18.14    2.30
 -14  11   2   16.00    1.71
 -14  11   2   17.26    2.38
 -14  11   2   16.66    1.68
 -14  11   1    3.88    1.37
 -14  11   1    4.09    1.31
 -14  11   1    5.43    1.85
 -14  11   1    5.57    1.75
 -14  11   1    3.76    1.32
 -14  11   0   34.09    2.79
 -14  11   0   41.82    2.69
 -14  11  -1    3.65    1.39
  14  11   1    1.70    1.43
  14  11   1    3.78    1.33
 -14  11  -1    3.71    1.46
 -14  11  -1    3.48    1.52
  14  11   2   16.04    1.71
 -14  11  -2   18.51    1.83
  14  11   2   15.04    1.96
 -14  11  -2   20.30    1.88
 -14 -11   3  107.99    6.78
 -14  11  -3  119.85    5.93
  14  11   3  106.09    6.02
  14  11   3  115.85    5.80
  14  11   4    6.07    1.48
  14  11   4    4.82    1.63
 -14  11  -4    5.05    1.44
  14  11   5    8.81    1.46
  14  11   5    5.90    1.52
 -14  11  -5    7.12    1.41
 -14  11  -6    1.84    1.12
  14  11   6    0.86    1.24
 -14  11  -7    3.77    0.90
  14  11   7    5.79    1.06
 -14  12   6    1.75    0.90
 -14  12   5    4.21    1.05
 -14  12   4    8.27    1.13
 -14  12   3   70.94    4.04
 -14  12   3   59.14    3.64
 -14  12   3   60.97    3.46
 -14  12   3   59.03    3.16
 -14  12   2    2.42    1.46
 -14  12   2    4.13    2.03
 -14  12   2    5.40    1.29
 -14  12   2    6.18    1.37
 -14  12   1    2.33    1.38
 -14  12   1    4.28    1.85
 -14  12   1    3.22    1.33
  14  12  -1    0.87    1.31
 -14  12   1    2.80    1.38
  14  12   0    7.92    1.58
 -14  12   0   12.10    1.45
 -14  12   0   10.62    1.88
  14  12   1    1.73    1.53
 -14  12  -1    0.97    1.47
 -14  12  -1    2.89    1.59
  14  12   1    0.74    1.38
  14  12   2    2.82    1.64
  14  12   2    4.20    1.47
 -14  12  -2    2.25    1.50
 -14  12  -2    3.75    1.49
 -14  12  -3   59.89    3.52
  14  12   3   68.91    3.69
 -14 -12   3   59.74    4.43
  14  12   3   69.42    3.43
 -14  12  -3   51.71    3.18
 -14  12  -4    7.77    1.54
  14  12   4   10.35    1.55
  14  12   5    5.58    1.44
 -14  12  -5    4.15    1.31
  14  12   5    4.50    1.38
 -14  12  -6    2.59    1.10
  14  12   6    3.33    1.18
 -14  12  -7    3.56    0.82
  14  12   7    5.29    0.96
 -14  13   3    2.68    2.03
 -14  13   3    2.40    1.22
 -14  13   3    3.38    1.50
 -14  13   2   12.93    1.77
 -14  13   2   17.49    2.32
 -14  13   2   15.22    1.70
 -14  13   1    2.29    1.39
 -14  13   1    4.72    1.88
 -14  13   1    3.97    1.26
 -14  13   1    3.68    1.42
 -14  13   0    2.89    1.70
 -14  13   0    3.68    1.35
  14  13   0    2.64    1.46
  14  13   1    4.67    1.57
 -14  13  -1    2.41    1.49
 -14  13  -1    4.54    1.63
  14  13   2   16.69    1.93
 -14  13  -2   12.26    1.88
  14  13   2   14.16    1.74
 -14  13  -2   15.52    1.80
  14  13   3    2.05    1.57
  14  13   3   -0.58    1.42
 -14 -13   3    1.99    2.30
 -14  13  -3    2.04    1.46
 -14  13  -4    3.97    1.38
  14  13   4    4.41    1.43
 -14  13  -5    1.66    1.25
  14  13   5   -0.15    1.29
  14  13   5    1.55    1.28
  14  13   6    1.51    0.94
  14  13   6    0.10    1.04
 -14  13  -6    0.12    1.01
  14  13   7    2.62    0.78
 -14  14   3    5.08    1.30
 -14  14   3   10.30    1.59
 -14  14   3    6.62    2.06
 -14  14   2    5.65    1.42
 -14  14   2    6.94    2.01
 -14  14   1   15.98    1.77
 -14  14   1    9.73    1.37
 -14  14   1   12.08    1.61
 -14  14   1   13.06    2.07
  14  14   0    7.07    1.49
 -14  14   0    5.48    1.40
 -14  14   0    7.57    1.83
 -14  14  -1   12.85    1.89
  14  14   1   12.63    1.76
 -14  14  -1   16.17    1.86
 -14  14  -2    4.30    1.62
  14  14   2    7.47    1.61
  14  14   2    6.77    1.60
 -14  14  -2    6.57    1.46
  14  14   3   11.50    1.60
  14  14   3    9.09    1.64
 -14  14  -3    7.20    1.71
  14  14   4    3.13    1.35
  14  14   4    4.51    1.43
 -14  14  -4    0.73    1.36
 -14  14  -5    2.39    1.25
  14  14   5    2.78    1.20
  14  14   6    0.99    0.82
 -14  14  -6    1.33    0.96
 -14  15   3   -0.06    1.12
 -14  15   3    0.65    1.27
 -14  15   2    2.11    1.85
 -14  15   2    4.89    1.34
 -14  15   1    5.53    1.79
 -14  15   1    3.49    1.41
 -14  15   0    0.58    1.14
 -14  15   0    3.11    1.74
  14  15   0    1.14    1.29
  14  15   1    2.26    1.42
 -14  15  -1    1.68    1.61
 -14  15  -1    1.07    1.39
  14  15   2    4.52    1.49
 -14  15  -2    6.16    1.42
 -14  15  -2    4.67    1.64
  14  15   3    1.70    1.44
 -14  15  -3   -0.33    1.51
  14  15   3    0.75    1.38
  14  15   4    2.35    1.31
 -14  15  -4    0.45    1.35
  14  15   4    1.67    1.30
 -14  15  -5   -0.13    1.15
  14  15   5    2.09    1.12
 -14  15  -6    2.53    0.80
  14  15   6    2.37    0.68
 -14  16   2    7.34    1.36
 -14  16   1    3.65    1.73
 -14  16   1    2.80    1.35
 -14  16   0    5.08    1.44
  14  16   0    6.73    1.28
 -14  16  -1    1.36    1.36
 -14  16  -1    2.59    1.55
  14  16   1    1.81    1.30
 -14  16  -2    6.58    1.40
 -14  16  -2    7.89    1.64
  14  16   2    5.76    1.41
 -14  16  -3    2.49    1.38
  14  16   3    4.27    1.29
 -14  16  -4   -0.52    1.24
 -14  16  -5   -0.20    1.01
 -14  17   2    7.41    1.21
 -14  17   2    2.89    1.27
 -14  17   1    3.95    1.25
 -14  17   0    3.11    1.56
 -14  17   0    2.06    1.30
 -14  17  -1    3.65    1.32
 -14  17  -1    7.35    1.59
  14  17   1    3.93    1.18
 -14  17  -2    6.49    1.24
 -14  17  -2    5.87    1.51
  14  17   2    5.50    1.23
 -14  17  -3    1.89    1.31
 -14  17  -4    1.36    1.09
  14  17   4    0.50    0.88
 -14  17  -5    3.09    0.85
 -14  18   2    2.52    0.98
 -14  18   1    8.36    1.26
 -14  18   0    3.22    1.19
 -14  18  -1    8.16    1.27
 -14  18  -1    9.16    1.54
  14  18   1    6.06    0.98
 -14  18  -2    2.98    1.24
  14  18   2    3.58    0.92
 -14  18  -3    1.69    1.15
  14  18   3    0.34    0.85
 -14  18  -4    3.30    0.92
  14  18   4    1.91    0.72
 -14  19   2   16.93    1.26
 -14  19   1   11.53    1.28
 -14  19   1   15.13    1.25
 -14  19   0    4.00    1.01
 -14  19  -1   14.12    1.54
  14  19   2   11.56    1.03
 -14  19  -2   20.04    1.49
  14  19   3    0.88    0.62
 -14  19  -3    1.99    0.97
 -14  19  -3   -0.79    0.77
 -14  19  -4    0.50    0.62
 -14  20   1    2.06    0.74
 -14  20   0   -0.26    0.83
  14  20   1    1.00    0.54
 -14  20  -1    0.18    0.88
 -14  20  -2    1.50    0.84
 -14  20  -2   -0.74    0.75
 -15   0   0   12.03    1.23
 -15   0   1    7.18    1.12
 -15   0   1    8.57    1.64
 -15   0   2   10.43    1.95
 -15   0   3    2.49    1.84
 -15   0   4    3.64    1.64
  15   0   4    5.90    2.52
 -15   0   5    2.76    1.76
  15   0   5    3.49    2.65
 -15   0   5    1.86    1.48
 -15   0   6    1.56    1.62
 -15   0   6    1.70    1.65
  15   0   6    0.50    2.68
 -15   0   6    2.05    1.52
 -15   0   7    2.28    1.52
 -15   0   7    3.40    1.44
 -15   0   7    3.09    1.62
 -15   0   8    0.06    1.05
 -15   0   8    1.14    1.19
 -15   0   9    2.28    0.67
 -15   1   9    1.30    0.66
 -15   1   8    9.04    1.22
 -15   1   8    8.39    1.28
 -15   1   7    3.62    1.39
 -15   1   7    2.57    1.56
 -15   1   6   30.59    2.34
 -15   1   6   31.23    1.94
 -15   1   6   31.83    2.37
 -15   1   5    7.19    1.61
  15  -1   5    4.84    2.84
 -15   1   4   -0.40    1.77
  15  -1   4    0.15    2.57
 -15   1   2   75.02    3.88
 -15  -1  -1   19.44    1.53
 -15  -1   0    1.41    1.28
 -15   1   0    1.92    1.04
 -15  -1   0    2.08    0.98
 -15  -1   1   18.65    1.46
 -15  -1   1   17.60    2.01
 -15  -1   2   64.77    4.00
 -15  -1   3    9.40    2.01
  15   1   3    5.88    2.09
 -15  -1   4    0.18    1.60
  15   1   4    1.31    2.13
 -15  -1   4   -1.03    1.87
 -15  -1   5    0.99    1.76
  15   1   5    4.76    2.51
 -15  -1   5    5.22    1.56
 -15  -1   6   34.18    2.45
 -15  -1   6   31.03    2.49
 -15  -1   6   28.53    2.26
 -15  -1   7    1.81    1.55
 -15  -1   7    2.70    1.42
 -15  -1   8    6.31    1.31
 -15  -1   8    8.18    1.20
 -15  -1   9    2.43    0.67
 -15   2   9    5.18    0.71
 -15   2   8    5.42    1.16
 -15   2   8    3.73    1.08
 -15   2   7    1.19    1.40
 -15   2   7    1.42    1.29
 -15   2   7    3.44    1.48
 -15   2   6   30.46    2.39
 -15   2   6   27.11    1.88
  15  -2   6   33.10    3.86
 -15   2   5   12.05    1.86
 -15   2   5   12.34    1.99
  15  -2   5   13.23    3.24
 -15   2   5   12.27    2.05
 -15   2   5   14.05    1.32
 -15   2   5   13.53    1.74
 -15   2   4    9.18    1.79
 -15   2   4   10.30    1.52
 -15   2   4    7.13    1.89
 -15   2   4    6.84    1.77
 -15   2   4    8.54    1.16
 -15   2   3    8.20    1.55
 -15   2   3    9.20    1.14
 -15   2   2   67.46    3.53
 -15  -2  -1  148.59    7.19
 -15  -2  -1  144.15    7.27
 -15  -2   0   14.74    1.24
 -15  -2   0   14.84    1.67
 -15  -2   1  152.37    7.87
  15   2   2   60.75    3.62
 -15  -2   2   66.67    3.97
 -15  -2   3    7.88    1.59
 -15  -2   3    6.75    1.64
  15   2   3    9.60    1.86
 -15  -2   3    8.79    2.01
 -15  -2   4    9.78    1.81
 -15  -2   4   12.12    2.18
  15   2   4    8.83    2.14
 -15  -2   5   14.25    2.02
  15   2   5   11.15    2.42
 -15  -2   5   13.25    1.71
 -15  -2   6   30.33    2.57
 -15  -2   6   34.28    2.39
 -15  -2   6   32.01    2.58
 -15  -2   7    3.17    1.55
 -15  -2   7    2.85    1.44
 -15  -2   8    4.73    1.12
 -15  -2   8    6.20    1.29
 -15  -2   9    4.57    0.66
 -15   3   9    0.97    0.58
 -15   3   8    1.66    1.08
 -15   3   7    1.72    1.35
 -15   3   7    1.06    1.37
  15  -3   6    0.41    3.03
 -15   3   6    2.73    1.57
 -15   3   6    1.60    1.48
 -15   3   5    3.97    1.65
 -15   3   5   -0.17    1.48
 -15   3   5    3.64    1.80
 -15   3   5    2.19    0.99
 -15   3   5    2.09    1.49
 -15   3   5    3.71    1.97
  15  -3   5    3.27    3.06
 -15   3   4    1.11    0.96
 -15   3   4    1.21    1.54
 -15   3   4    1.99    1.70
 -15   3   4    1.77    1.67
 -15   3   3    2.79    1.47
 -15   3   3    3.04    0.98
 -15   3   2   49.05    2.71
 -15  -3  -1   67.15    3.72
 -15  -3  -1   62.51    3.85
 -15  -3   0   30.05    1.89
 -15  -3   0   30.92    2.29
 -15  -3   1   65.55    3.93
 -15  -3   2   38.77    2.98
 -15  -3   3    3.58    1.52
 -15  -3   3    3.09    1.47
 -15  -3   3    1.52    1.88
 -15  -3   4    1.54    1.60
 -15  -3   4   -0.15    1.93
 -15  -3   5    1.05    1.74
  15   3   5    2.31    1.31
 -15  -3   5    2.02    1.43
 -15  -3   6    3.31    1.77
 -15  -3   6    2.39    1.40
 -15  -3   7   -0.25    1.37
 -15  -3   7    0.60    1.51
 -15  -3   8    1.06    1.23
 -15  -3   8    0.31    1.01
 -15   4   9    2.24    0.54
 -15   4   8    8.42    1.15
 -15   4   6    4.36    1.52
  15  -4   6    4.41    3.12
 -15   4   6    3.18    1.36
 -15   4   5    2.97    1.91
 -15   4   5    3.07    1.47
 -15   4   5    7.30    1.77
 -15   4   5    4.39    1.59
 -15   4   5    5.19    0.96
  15  -4   5    4.61    3.11
 -15   4   4    6.24    1.72
 -15   4   4    7.85    1.79
 -15   4   4    5.16    1.58
 -15   4   4    6.92    1.69
 -15   4   4    5.57    1.04
 -15   4   4    6.25    1.48
 -15   4   3    6.47    1.03
 -15   4   3    7.36    1.52
 -15   4   2  117.10    5.82
 -15  -4  -1   62.12    3.74
 -15  -4  -1   75.16    3.57
 -15   4   1   66.75    3.62
 -15  -4   0    1.86    0.94
 -15  -4   0    1.28    1.35
 -15  -4   1   72.07    4.24
 -15  -4   2  139.31    7.46
 -15  -4   3    8.26    1.51
 -15  -4   3    6.66    1.98
 -15  -4   4    6.03    1.67
 -15  -4   4    7.64    2.12
 -15  -4   5    6.42    1.81
  15   4   5    5.30    1.44
 -15  -4   5    6.44    1.45
 -15  -4   6    3.09    1.75
 -15  -4   6    4.04    1.34
 -15  -4   7    6.70    1.48
 -15  -4   7    6.61    1.55
 -15  -4   8    7.15    1.07
 -15  -4   8    7.87    1.29
 -15   5   9   -0.17    0.42
 -15   5   8    0.84    0.95
 -15   5   7    5.60    1.22
 -15   5   6    9.35    1.51
 -15   5   6    7.11    1.55
 -15   5   6    7.45    1.43
 -15   5   5    7.94    1.76
 -15   5   5    8.12    1.48
 -15   5   5    5.00    1.98
 -15   5   5    7.31    1.58
 -15   5   5    6.81    1.56
 -15   5   5    6.35    1.57
  15  -5   5    6.34    3.28
 -15   5   4    5.14    1.54
 -15   5   4    4.37    1.70
 -15   5   4    5.48    1.77
 -15   5   4    6.18    0.99
 -15   5   4    5.64    1.60
 -15   5   4    6.91    1.40
 -15   5   4    4.99    1.49
 -15   5   4    3.45    1.42
 -15   5   4    4.38    1.48
 -15   5   3    9.56    1.51
 -15   5   3    9.11    1.11
 -15   5   3    8.30    1.59
 -15   5   3   10.76    1.61
 -15   5   2   38.99    2.31
 -15  -5  -1   17.45    1.65
 -15  -5  -1   17.46    1.30
 -15  -5   0    0.91    0.89
 -15  -5   0    2.30    1.38
 -15  -5   1   17.55    2.00
 -15  -5   2   35.29    2.89
 -15  -5   3    8.60    1.55
 -15  -5   3    7.79    2.12
 -15  -5   4    6.08    1.64
 -15  -5   4    4.90    2.23
 -15  -5   5    5.88    1.82
  15   5   5    8.68    1.57
 -15  -5   5    6.26    1.40
 -15  -5   6    7.51    1.77
 -15  -5   7    2.26    1.40
 -15  -5   7    2.93    1.34
 -15  -5   8    0.77    0.86
 -15  -5   8   -0.17    1.14
 -15   6   7    6.62    1.18
 -15   6   6    1.82    1.22
 -15   6   6   -0.68    1.34
 -15   6   6    1.63    1.28
 -15   6   5   14.18    2.09
 -15   6   5   10.79    1.59
 -15   6   5   15.74    1.73
 -15   6   5   10.98    1.49
 -15   6   5   11.29    1.63
  15  -6   5   15.10    3.64
 -15   6   4   91.97    5.00
 -15   6   4   96.95    5.07
 -15   6   4   93.14    4.97
 -15   6   4   99.51    5.25
 -15   6   4   95.98    5.17
 -15   6   4   97.53    4.99
 -15   6   4   93.39    5.23
 -15   6   4   95.48    5.12
 -15   6   3   35.13    2.31
 -15   6   3   31.54    2.34
 -15   6   3   36.23    2.22
 -15   6   3   34.25    2.46
 -15   6   3   36.35    2.21
 -15   6   3   32.27    2.46
 -15   6   2    6.08    1.42
 -15   6   2    1.26    1.40
 -15  -6  -1    2.31    0.82
 -15  -6   0   95.66    4.78
 -15  -6   1    2.72    1.66
 -15  -6   2    4.11    1.86
 -15  -6   3   35.58    2.45
 -15  -6   3   38.00    3.18
 -15  -6   4   94.57    5.19
 -15  -6   4  109.73    6.17
  15   6   4  100.19    5.33
 -15  -6   4  104.94    5.35
 -15  -6   5   13.24    2.60
 -15  -6   5   12.21    2.01
  15   6   5   15.95    1.78
 -15  -6   6    2.47    1.57
 -15  -6   7    8.15    1.35
 -15  -6   7    6.09    1.36
 -15  -6   8    2.08    1.08
 -15  -6   8    1.49    0.72
 -15   7   7    0.61    1.12
 -15   7   6    2.01    1.30
 -15   7   6    2.19    1.18
 -15   7   5   21.28    1.78
 -15   7   5   21.24    1.91
 -15   7   5   21.41    2.24
 -15   7   5   20.71    1.74
 -15   7   5   18.55    1.81
 -15   7   4   32.45    2.57
 -15   7   4   36.95    2.79
 -15   7   4   32.00    2.30
 -15   7   4   35.45    2.44
 -15   7   4   36.63    2.34
 -15   7   4   38.23    2.32
 -15   7   4   38.53    2.53
 -15   7   3    6.13    1.54
 -15   7   3    3.77    1.15
 -15   7   3    4.92    1.37
 -15   7   3    4.31    1.09
 -15   7   3    2.10    1.42
 -15   7   3    3.52    1.26
 -15   7   2   40.99    2.61
 -15   7   2   35.81    2.61
 -15   7   2   38.18    2.50
 -15   7   2   41.93    2.77
 -15   7   1   10.40    1.48
 -15  -7   0    5.57    0.96
 -15   7  -2   35.51    2.21
 -15  -7   2   30.82    2.92
 -15   7  -2   35.60    2.27
 -15  -7   3    4.82    2.16
 -15   7  -3    3.58    1.17
 -15  -7   4   30.17    3.24
 -15   7  -4   30.87    2.05
  15   7   4   27.34    2.31
 -15  -7   4   28.30    2.24
 -15  -7   5   17.77    1.99
 -15   7  -5   15.96    1.58
  15   7   5   17.38    1.88
 -15  -7   5   16.89    2.74
 -15   7  -6    2.70    1.12
 -15  -7   6    3.93    1.53
 -15  -7   7   -0.02    1.09
 -15  -7   7    1.32    1.14
 -15  -7   8    1.47    0.95
 -15   8   7    8.77    1.19
 -15   8   6   12.05    1.44
 -15   8   5   12.30    1.94
 -15   8   5   13.58    1.52
 -15   8   5   11.41    1.36
 -15   8   5   16.01    1.45
 -15   8   4  342.15   16.70
 -15   8   4  365.28   16.85
 -15   8   4  342.80   16.82
 -15   8   4  345.64   16.59
 -15   8   4  347.57   16.59
 -15   8   4  333.60   16.68
 -15   8   3    5.73    1.88
 -15   8   3    6.12    1.58
 -15   8   3    4.90    1.44
 -15   8   3    3.05    1.12
 -15   8   3    6.15    1.35
 -15   8   3    5.20    1.28
 -15   8   2    4.52    1.42
 -15   8   2    6.41    1.16
 -15   8   2    5.63    1.18
 -15   8   2    7.71    1.35
 -15   8   2    6.34    1.78
 -15   8   1    2.50    1.12
 -15   8   1    4.85    1.48
 -15   8   1    4.29    1.31
 -15   8   0    2.43    1.19
 -15   8   0    2.99    1.41
 -15  -8   0    3.06    0.85
 -15   8  -1    2.74    1.19
 -15   8  -1    2.91    1.33
 -15  -8   2    8.70    2.14
 -15   8  -2    6.25    1.30
 -15   8  -2    6.40    1.33
 -15  -8   3    7.18    2.28
 -15   8  -3    3.43    1.25
 -15   8  -4  390.48   18.48
  15   8   4  368.29   18.58
 -15  -8   4  403.08   19.43
 -15  -8   5   15.27    2.72
  15   8   5   13.28    1.75
 -15   8  -5   13.49    1.52
 -15  -8   5   12.09    1.79
 -15   8  -6   11.84    1.35
  15   8   6    9.86    1.48
 -15  -8   6   10.74    1.53
 -15  -8   7    8.77    1.11
  15   8   8    1.79    0.84
 -15  -8   8    1.57    0.76
 -15   9   8    2.84    0.63
 -15   9   7    9.26    1.12
 -15   9   6    1.84    1.18
 -15   9   5   14.26    1.48
 -15   9   5   10.49    1.83
 -15   9   4  291.58   14.27
 -15   9   4  290.66   14.42
 -15   9   4  303.81   14.45
 -15   9   4  297.76   14.18
 -15   9   4  291.40   14.16
 -15   9   3    2.61    1.53
 -15   9   3    2.44    1.02
 -15   9   3    2.33    2.07
 -15   9   3    2.27    1.05
 -15   9   3    5.23    1.37
 -15   9   3    3.16    1.13
 -15   9   2    1.38    1.34
 -15   9   2    2.03    1.13
 -15   9   2    2.72    1.24
 -15   9   2    2.06    1.72
 -15   9   1   23.57    2.15
 -15   9   1   23.93    1.93
 -15   9   1   20.06    1.78
 -15   9   0   10.71    1.49
 -15   9   0   12.44    1.69
 -15   9  -1   22.87    2.05
 -15   9  -1   25.91    2.00
  15   9   2    2.68    1.24
 -15  -9   2    1.53    2.04
 -15   9  -2    3.26    1.28
 -15   9  -2    0.38    1.25
 -15  -9   3    5.23    2.32
 -15   9  -3    2.98    1.30
 -15  -9   4  267.75   13.82
  15   9   4  239.65   12.95
 -15   9  -4  282.94   12.87
 -15  -9   5   13.09    1.69
  15   9   5   13.86    1.78
 -15   9  -5   12.63    1.52
 -15  -9   6    0.96    1.13
  15   9   6    3.04    1.28
 -15  -9   6    2.83    1.29
 -15   9  -6    1.80    1.10
  15   9   8    1.97    0.76
 -15  10   8    2.45    0.48
 -15  10   7   -0.82    0.84
 -15  10   6    0.59    1.06
 -15  10   5    9.07    1.29
 -15  10   4   18.84    1.92
 -15  10   4   15.91    2.06
 -15  10   4   19.19    1.54
 -15  10   3   14.36    2.20
 -15  10   3   11.69    1.29
 -15  10   3    9.50    1.78
 -15  10   3   12.87    1.37
 -15  10   3   12.08    1.23
 -15  10   2   26.16    1.90
 -15  10   2   23.45    2.03
 -15  10   2   20.87    1.82
 -15  10   1    2.89    1.34
 -15  10   1    1.17    1.22
 -15  10   1    3.35    1.72
 -15  10   0    1.77    1.31
 -15  10   0    2.31    1.45
 -15  10  -1   -0.04    1.32
 -15  10  -1    0.82    1.51
  15  10   1    2.94    1.25
  15  10   2   25.96    2.28
 -15  10  -2   29.46    2.24
  15  10   2   30.04    2.05
 -15  10  -2   29.03    2.22
  15  10   3   16.80    1.72
 -15 -10   3   16.33    2.76
 -15  10  -3   14.77    1.75
 -15 -10   4   19.35    2.88
  15  10   4   22.16    2.14
 -15  10  -4   20.11    1.87
 -15  10  -5    7.70    1.38
  15  10   5    8.36    1.60
 -15  10  -6    2.01    1.11
  15  10   6    0.34    1.21
 -15  10  -7    1.63    0.83
  15  10   7    1.35    1.03
  15  10   8    2.63    0.63
 -15  11   7    1.32    0.72
 -15  11   6    5.01    1.02
 -15  11   5    8.15    1.16
 -15  11   4    8.16    1.69
 -15  11   4   12.25    1.65
 -15  11   4   10.77    1.24
 -15  11   3    9.02    1.04
 -15  11   3    8.98    1.33
 -15  11   3    7.37    1.71
 -15  11   3    8.47    2.19
 -15  11   2    5.91    2.07
 -15  11   2    5.96    1.40
 -15  11   2    6.60    1.38
 -15  11   1   16.50    2.01
 -15  11   1   16.05    1.72
 -15  11   1   13.43    1.67
 -15  11   1   14.03    1.39
 -15  11   0    2.94    1.41
 -15  11   0    5.28    1.72
 -15  11  -1   14.39    1.75
  15  11   1   14.85    1.57
 -15  11  -1   13.49    1.87
  15  11   1   13.62    1.80
  15  11   2    4.18    1.66
  15  11   2    7.50    1.46
 -15  11  -2    5.54    1.50
 -15  11  -2    5.67    1.53
 -15  11  -3   10.81    1.67
  15  11   3   12.27    1.61
 -15 -11   3   11.08    2.57
  15  11   3    9.71    1.83
 -15  11  -4    9.41    1.48
  15  11   4    9.83    1.56
 -15 -11   4    9.39    2.52
  15  11   4    7.84    1.69
  15  11   5    5.61    1.46
  15  11   5    5.59    1.42
 -15  11  -5    5.06    1.30
  15  11   6    3.48    1.22
 -15  11  -6    2.26    1.10
  15  11   7    1.49    0.97
 -15  11  -7   -0.22    0.74
 -15  12   3   28.34    2.69
 -15  12   3   23.81    2.22
 -15  12   3   23.93    1.89
 -15  12   2    1.30    1.25
 -15  12   2    0.82    1.98
 -15  12   2    1.43    1.27
 -15  12   1    8.79    1.89
 -15  12   1    7.17    1.43
  15  12  -1    6.50    1.42
 -15  12   1    5.81    1.49
  15  12   0    2.59    1.44
 -15  12   0    2.49    1.70
 -15  12  -1    4.79    1.72
  15  12   1    6.89    1.64
  15  12   1    7.66    1.49
 -15  12  -1    3.58    1.50
 -15  12  -2    1.25    1.60
  15  12   2    3.43    1.45
  15  12   2    2.41    1.63
 -15  12  -2    3.42    1.51
 -15 -12   3   23.11    3.06
  15  12   3   31.00    2.11
 -15  12  -3   22.80    2.08
  15  12   3   27.33    2.32
 -15  12  -4    7.52    1.45
  15  12   4    9.68    1.55
 -15  12  -5    1.61    1.24
  15  12   5    2.41    1.30
  15  12   5    1.30    1.33
 -15  12  -6    2.87    1.07
  15  12   6    1.04    1.13
  15  12   7    1.26    0.84
 -15  13   3    6.67    2.10
 -15  13   3    6.42    1.26
 -15  13   3    6.44    1.59
 -15  13   2    6.79    1.41
 -15  13   2    4.63    1.17
 -15  13   1    4.85    1.49
 -15  13   1    2.50    1.82
 -15  13   1    4.92    1.32
 -15  13   0    2.18    1.65
  15  13   0    3.06    1.45
 -15  13  -1    3.36    1.53
 -15  13  -1    5.05    1.68
  15  13   1    4.02    1.57
 -15  13  -2    5.58    1.65
 -15  13  -2    8.66    1.62
  15  13   2    7.15    1.67
  15  13   2    8.03    1.57
  15  13   3    3.06    1.60
  15  13   3    4.20    1.47
 -15  13  -3    3.89    1.57
  15  13   4   10.27    1.53
 -15  13  -4    9.35    1.56
  15  13   5    1.94    1.25
 -15  13  -5    0.56    1.21
  15  13   5   -0.03    1.24
  15  13   6    2.92    0.92
 -15  13  -6   -0.14    0.98
  15  13   6    2.67    1.04
  15  13   7    9.80    0.87
 -15  14   3    0.80    1.14
 -15  14   3    0.98    1.39
 -15  14   2    1.41    1.92
 -15  14   2    2.24    1.30
 -15  14   1   14.71    1.77
 -15  14   1   14.89    2.16
 -15  14   1   12.55    1.45
  15  14   0    3.39    1.41
 -15  14   0    7.13    1.43
 -15  14   0    4.92    1.81
 -15  14  -1   14.56    1.80
 -15  14  -1   14.21    1.95
  15  14   1   14.80    1.78
 -15  14  -2    2.56    1.63
 -15  14  -2    1.37    1.37
  15  14   2    2.39    1.51
  15  14   2    2.56    1.50
  15  14   3    0.81    1.45
  15  14   3    1.65    1.45
 -15  14  -3   -1.27    1.49
  15  14   4    1.22    1.39
 -15  14  -4    0.23    1.38
  15  14   4   -0.06    1.30
 -15  14  -5    3.56    1.22
  15  14   5    5.87    1.22
  15  14   6    1.17    0.77
 -15  14  -6    0.01    0.89
  15  14   6    1.26    0.95
 -15  15   2    1.32    1.23
 -15  15   2   -0.75    1.47
 -15  15   2    3.19    1.86
 -15  15   1    3.44    1.42
 -15  15   1    3.03    1.79
  15  15   0   -0.33    1.24
 -15  15   0    1.47    1.16
 -15  15   0    1.40    1.68
 -15  15  -1    4.47    1.67
 -15  15  -1    5.91    1.54
  15  15   1    4.06    1.42
 -15  15  -2    0.58    1.52
  15  15   2    0.03    1.37
 -15  15  -2    0.90    1.32
  15  15   3    2.43    1.42
 -15  15  -3    1.34    1.39
  15  15   3    1.55    1.41
  15  15   4    5.98    1.33
 -15  15  -4    4.67    1.33
  15  15   4    8.95    1.35
 -15  15  -5    1.80    1.09
  15  15   5    4.61    1.10
 -15  15  -6    1.71    0.70
 -15  16   2    0.07    1.35
 -15  16   2    2.37    1.17
 -15  16   2    0.04    1.67
 -15  16   1    3.75    1.34
 -15  16   1    5.26    1.74
  15  16   0    4.43    1.20
 -15  16   0    5.39    1.72
 -15  16  -1    2.84    1.36
  15  16   1    4.56    1.30
 -15  16  -1    3.21    1.55
 -15  16  -2    2.58    1.32
  15  16   2    0.54    1.25
 -15  16  -2    3.00    1.51
  15  16   3    5.68    1.32
 -15  16  -3    4.55    1.45
 -15  16  -4    0.28    1.16
 -15  16  -5    7.41    1.08
 -15  17   2    0.58    1.15
 -15  17   2    1.31    1.05
 -15  17   1    0.87    1.16
 -15  17   1    2.85    1.59
 -15  17   0    8.62    1.70
 -15  17  -1    1.28    1.20
 -15  17  -1    3.21    1.45
  15  17   1    1.47    1.08
 -15  17  -2    1.51    1.39
  15  17   2    3.25    1.11
 -15  17  -3    1.82    1.27
  15  17   4    4.19    0.91
 -15  17  -4    4.64    1.08
 -15  17  -4    3.23    0.79
 -15  17  -5    2.95    0.72
 -15  18   2    2.42    0.90
 -15  18   1    9.20    1.51
 -15  18   1    7.17    1.16
 -15  18   0    2.73    1.37
 -15  18   0    1.90    1.10
  15  18   1    5.71    0.93
 -15  18  -1   10.18    1.51
 -15  18  -1    8.19    1.22
  15  18   2    3.15    0.90
 -15  18  -2    6.31    1.30
  15  18   3    0.54    0.78
 -15  18  -3    2.53    1.11
  15  18   4    1.45    0.65
 -15  18  -4    3.50    0.83
 -15  19   1    8.23    1.12
 -15  19   1    7.07    1.01
 -15  19   0    5.64    1.29
 -15  19   0    7.21    1.04
 -15  19  -1    7.32    1.31
  15  19   2    3.63    0.67
 -15  19  -2    6.91    1.15
  15  19   3    0.69    0.54
 -15  19  -3    0.33    0.82
 -15  19  -3   -0.20    0.65
 -15  20   0    7.26    0.97
 -15  20  -1    5.09    0.99
 -15  20  -1    4.23    0.88
 -15  20  -2    4.98    0.85
 -15  20  -2    5.51    0.74
 -16   0   0   97.83    4.94
 -16   0   1   16.71    1.93
 -16   0   1   14.96    1.35
 -16   0   2   58.71    3.81
 -16   0   3   12.74    1.86
 -16   0   3   13.59    1.76
 -16   0   4    5.00    1.71
  16   0   4    2.02    2.45
 -16   0   5   23.43    2.39
  16   0   5   20.75    3.17
 -16   0   5   23.93    2.14
 -16   0   6   11.42    1.75
 -16   0   6   11.44    1.83
 -16   0   7    7.69    1.62
 -16   0   7    6.06    1.60
 -16   0   7    4.28    1.42
 -16   0   8    2.07    1.14
 -16   0   8   -0.73    1.00
 -16   0   9   10.14    0.79
 -16   1   9    1.47    0.56
 -16   1   8    7.89    1.26
 -16   1   8   10.12    1.20
 -16   1   7    4.15    1.53
 -16   1   7    3.92    1.38
 -16   1   6    2.16    1.55
 -16   1   6    3.98    1.06
 -16   1   6    5.41    1.62
  16  -1   6    1.13    2.72
 -16   1   5    6.67    1.67
 -16   1   5    5.86    1.17
  16  -1   5    4.20    2.68
 -16   1   5    5.90    1.77
  16  -1   4    0.99    2.54
 -16   1   3   13.57    1.36
 -16   1   3   14.46    1.85
 -16   1   2   43.30    2.48
 -16  -1  -1   66.20    3.54
 -16  -1   0    3.63    1.37
 -16  -1   0    5.09    1.07
 -16   1   0    3.62    1.12
 -16  -1   1   60.16    3.15
 -16  -1   1   54.03    3.59
 -16  -1   2   28.84    2.59
  16   1   3    9.40    2.06
 -16  -1   3    7.80    2.09
 -16  -1   3   12.95    1.77
 -16  -1   3   14.47    1.81
 -16  -1   4    0.88    1.68
 -16  -1   4    1.54    1.95
  16   1   4    3.61    2.21
 -16  -1   5    4.11    1.86
  16   1   5    1.28    2.36
 -16  -1   5    4.23    1.58
 -16  -1   6    3.88    1.56
 -16  -1   6    5.39    1.70
 -16  -1   6    4.18    1.82
 -16  -1   7    4.44    1.55
 -16  -1   7    4.46    1.45
 -16  -1   8    8.11    1.33
 -16  -1   8   10.78    1.22
 -16  -1   9    0.71    0.55
 -16   2   9    2.74    0.55
 -16   2   8    7.00    1.15
 -16   2   8    4.73    1.05
 -16   2   7    6.44    1.49
 -16   2   7    9.05    1.40
 -16   2   7    9.91    1.55
 -16   2   6   10.04    1.71
 -16   2   6    9.66    1.78
 -16   2   6    9.72    1.13
  16  -2   6    8.90    3.06
 -16   2   5    8.87    1.91
 -16   2   5   10.57    1.87
  16  -2   5   12.68    3.12
 -16   2   5   11.39    1.72
 -16   2   5   10.14    1.23
 -16   2   5   13.26    2.19
 -16   2   4    1.16    1.03
  16  -2   4    1.96    2.65
 -16   2   4    0.28    1.70
 -16   2   4    2.48    1.82
 -16   2   4    1.51    1.68
 -16   2   3    9.09    1.19
 -16   2   3    5.14    1.61
 -16   2   2   11.72    1.27
 -16  -2  -1   37.12    2.23
 -16  -2   0    6.14    1.45
 -16   2   0    4.51    1.18
 -16  -2   0    6.42    1.07
 -16  -2   1   36.95    2.23
 -16  -2   1   40.26    2.79
 -16  -2   2   13.16    2.08
 -16  -2   3    6.60    1.63
 -16  -2   3   11.12    1.71
 -16  -2   3   10.17    2.12
 -16  -2   4    0.95    1.68
 -16  -2   4    0.23    1.92
 -16  -2   5   12.00    1.71
 -16  -2   5   12.86    2.00
 -16  -2   6   13.84    1.74
 -16  -2   6   11.39    1.96
 -16  -2   6   11.25    1.89
 -16  -2   7    9.63    1.69
 -16  -2   7   11.57    1.60
 -16  -2   8    5.46    1.09
 -16  -2   8    6.69    1.26
 -16   3   9    2.66    0.50
 -16   3   8    1.48    1.00
 -16   3   7    9.99    1.50
 -16   3   6    3.86    1.61
 -16   3   6    2.41    1.51
 -16   3   6    3.98    1.51
 -16   3   5    6.24    1.09
 -16   3   5    3.00    1.97
  16  -3   5    5.94    3.12
 -16   3   5    5.81    1.58
 -16   3   5    7.17    1.72
 -16   3   5    8.57    1.90
 -16   3   4    2.95    1.07
 -16   3   4    4.28    1.65
 -16   3   4    3.43    1.73
 -16   3   4    5.29    1.77
 -16   3   3    6.63    1.61
 -16   3   3    5.83    1.59
 -16   3   3    7.53    1.14
 -16   3   2   94.17    4.79
 -16  -3  -1   30.21    2.16
 -16   3   1   46.34    2.28
 -16  -3   0   29.33    1.81
 -16  -3   0   26.96    2.22
 -16  -3   1   30.76    2.49
 -16  -3   2   70.99    4.38
 -16  -3   3    8.21    2.19
 -16  -3   3    9.26    1.64
 -16  -3   3    8.52    1.62
 -16  -3   4    4.85    1.71
 -16  -3   4    2.96    2.03
 -16  -3   5    4.92    1.89
 -16  -3   5    4.69    1.52
  16   3   5    6.30    1.42
 -16  -3   6    5.66    1.48
 -16  -3   6    2.32    1.81
 -16  -3   7    7.35    1.60
 -16  -3   7    8.74    1.55
 -16  -3   8    1.15    0.98
 -16  -3   8    0.70    1.17
 -16   4   8    4.35    1.01
 -16   4   6    1.78    1.35
 -16   4   6    1.20    1.46
 -16   4   6   -0.63    1.43
 -16   4   5    4.63    2.05
 -16   4   5    4.19    1.60
 -16   4   5    6.96    1.75
 -16   4   5    5.99    1.51
 -16   4   5    3.66    0.96
  16  -4   5    4.38    3.16
 -16   4   5    4.70    1.61
 -16   4   4   23.80    2.02
 -16   4   4   25.80    2.21
 -16   4   4   22.04    2.29
 -16   4   4   20.60    1.60
 -16   4   4   21.81    2.09
 -16   4   4   21.60    2.37
 -16   4   3    0.59    1.45
 -16   4   3    1.93    1.49
 -16   4   3    1.76    1.00
 -16   4   2   48.80    2.68
 -16   4   2   44.63    3.03
 -16  -4  -1   69.63    3.49
 -16   4   1   62.78    3.56
 -16  -4   0    0.13    1.36
 -16  -4   0    0.45    0.93
 -16  -4   1   65.34    4.00
 -16  -4   2   58.89    3.90
 -16  -4   3    0.38    1.47
 -16  -4   3    0.07    1.91
 -16  -4   4   27.83    2.40
 -16  -4   4   30.70    3.02
 -16  -4   5    5.86    1.88
 -16  -4   5    8.15    1.53
  16   4   5    5.15    1.50
 -16  -4   6    1.13    1.75
 -16  -4   6    0.47    1.28
 -16  -4   7   -0.44    1.37
 -16  -4   7    0.89    1.43
 -16  -4   8    2.66    0.94
 -16  -4   8    3.29    1.16
 -16   5   7   -0.19    1.06
 -16   5   6    2.03    1.39
 -16   5   6    1.42    1.37
 -16   5   6    1.02    1.28
 -16   5   5    7.01    1.79
 -16   5   5    7.84    1.51
 -16   5   5    7.32    2.09
 -16   5   5    8.61    1.59
 -16   5   5   10.07    1.63
 -16   5   5    6.20    1.60
  16  -5   5    7.98    3.38
 -16   5   4   13.43    2.14
 -16   5   4   14.22    1.97
 -16   5   4   10.02    1.79
 -16   5   4   11.98    1.71
 -16   5   4   16.95    1.65
 -16   5   4   14.89    1.89
 -16   5   4   12.90    1.71
 -16   5   4   13.83    1.27
 -16   5   4   13.28    1.72
 -16   5   3   30.89    2.34
 -16   5   3   35.11    2.49
 -16   5   3   31.56    2.01
 -16   5   3   31.51    2.44
 -16   5   2    3.38    1.30
 -16   5   2    2.45    1.48
 -16   5   2    3.29    1.07
 -16   5   2    3.19    1.37
 -16  -5  -1    0.71    0.86
 -16  -5   0    1.99    0.93
 -16  -5   0    0.31    1.38
 -16  -5   1    1.51    1.59
 -16  -5   2    1.61    1.75
 -16  -5   3   26.09    2.16
 -16  -5   3   24.16    2.76
 -16  -5   4   11.66    1.81
 -16  -5   4   11.91    2.45
  16   5   5    8.93    1.59
 -16  -5   5    6.31    1.44
 -16  -5   6    1.83    1.67
 -16  -5   7    0.54    1.33
 -16  -5   7    0.11    1.29
 -16  -5   8    1.88    0.84
 -16  -5   8    1.30    1.12
 -16   6   7    2.06    1.05
 -16   6   7    2.06    1.16
 -16   6   6    2.78    1.20
 -16   6   6    2.98    1.34
 -16   6   6    3.00    1.26
  16  -6   5   53.84    4.76
 -16   6   5   47.32    3.25
 -16   6   5   46.69    2.86
 -16   6   5   43.35    2.94
 -16   6   5   44.63    2.85
 -16   6   5   47.61    2.81
 -16   6   4   18.52    2.00
 -16   6   4   17.48    2.24
 -16   6   4   16.16    1.76
 -16   6   4   19.84    1.83
 -16   6   4   20.97    1.86
 -16   6   4   19.29    2.01
 -16   6   4   16.78    2.11
 -16   6   4   19.96    1.72
 -16   6   3   71.34    4.12
 -16   6   3   73.69    4.27
 -16   6   3   75.21    3.99
 -16   6   3   77.50    4.27
 -16   6   3   76.81    3.98
 -16   6   2    4.99    1.40
 -16   6   2    5.07    1.51
 -16   6   2    6.00    1.41
 -16   6   2    4.53    1.64
 -16   6   1    5.98    1.48
 -16  -6  -1   11.27    1.06
 -16   6   1    8.34    1.47
 -16  -6   0   60.00    3.09
 -16  -6   0   52.77    3.54
 -16  -6   1   10.92    1.87
 -16  -6   2    9.44    2.05
 -16  -6   3   93.89    5.40
 -16  -6   3   81.21    4.58
 -16  -6   4   20.05    1.79
 -16  -6   4   20.82    2.02
 -16  -6   4   22.56    2.87
  16   6   4   20.81    1.97
 -16  -6   5   51.34    3.26
 -16  -6   5   46.72    2.86
  16   6   5   47.28    3.03
 -16  -6   6    3.40    1.65
 -16  -6   7    1.20    1.21
 -16  -6   7    2.44    1.26
 -16  -6   8    1.39    0.68
 -16  -6   8    1.01    1.02
 -16   7   7    1.98    1.08
 -16   7   6    2.34    1.12
 -16   7   6    2.40    1.28
 -16   7   5    8.68    1.32
 -16   7   5    8.98    1.42
 -16   7   5    8.02    1.52
 -16   7   5   10.26    1.97
 -16   7   5    7.81    1.45
 -16   7   4   16.21    1.51
 -16   7   4   16.38    1.80
 -16   7   4   12.84    1.54
 -16   7   4   14.64    1.68
 -16   7   4   15.54    2.10
 -16   7   4   13.23    1.88
 -16   7   4   14.19    1.89
 -16   7   4   11.29    1.56
 -16   7   3  131.34    6.46
 -16   7   3  137.79    6.63
 -16   7   3  131.25    6.74
 -16   7   3  122.08    6.43
 -16   7   3  122.44    6.75
 -16   7   3  134.77    6.60
 -16   7   2    0.96    1.48
 -16   7   2    1.28    1.01
 -16   7   2    2.97    1.30
 -16   7   2    4.11    1.61
 -16   7   2    0.77    1.36
 -16   7   1    6.35    1.40
 -16   7   1    5.44    1.14
 -16   7   1    3.83    1.48
 -16  -7   0    3.88    0.93
 -16  -7   0    1.39    1.56
 -16   7   0    3.27    1.20
 -16  -7   1    3.19    1.84
 -16   7  -2    2.28    1.16
 -16  -7   2    1.68    1.90
 -16  -7   3  113.94    6.23
 -16   7  -3  127.74    6.17
 -16  -7   3  125.69    7.08
 -16  -7   4   12.84    1.76
  16   7   4   15.43    1.84
 -16   7  -4   14.09    1.51
 -16  -7   4   12.37    2.68
  16   7   5    6.69    1.61
 -16  -7   5    7.19    1.80
 -16  -7   6    3.79    1.51
 -16  -7   7    2.60    1.10
 -16  -7   7    1.18    1.13
 -16  -7   8    1.80    0.88
 -16   8   8    1.16    0.64
 -16   8   7   -0.55    0.97
 -16   8   6    6.20    1.25
 -16   8   5    1.15    1.74
 -16   8   5    1.15    1.23
 -16   8   5    1.73    1.12
 -16   8   5    1.81    1.04
 -16   8   4   26.78    2.08
 -16   8   4   27.99    2.12
 -16   8   4   26.57    1.84
 -16   8   4   24.27    2.26
 -16   8   4   24.86    2.47
 -16   8   4   26.79    1.95
 -16   8   3   40.98    2.52
 -16   8   3   37.19    2.55
 -16   8   3   39.98    2.71
 -16   8   3   41.94    2.83
 -16   8   3   39.39    2.36
 -16   8   2    2.08    1.43
 -16   8   2    1.48    1.45
 -16   8   2    3.73    1.10
 -16   8   2    2.31    1.30
 -16   8   2    3.62    1.67
 -16   8   1    0.25    1.09
 -16   8   1    2.89    1.58
 -16   8   1    1.26    1.33
 -16   8   0    1.81    1.18
 -16  -8   0    1.23    0.86
 -16   8   0    1.19    1.36
 -16  -8   1    2.25    1.80
 -16   8  -1    0.03    1.32
 -16  -8   2    3.46    2.04
 -16   8  -2    2.17    1.28
 -16   8  -3   43.96    2.73
 -16  -8   3   48.70    3.82
 -16   8  -4   25.04    2.01
  16   8   4   29.36    2.34
 -16  -8   4   32.47    3.30
  16   8   5    3.69    1.51
 -16  -8   5    2.28    1.60
 -16   8  -5    1.70    1.18
 -16   8  -6    5.44    1.14
 -16  -8   6    2.33    1.36
 -16  -8   7    1.09    0.93
  16   8   8    2.16    0.78
 -16   9   8    1.81    0.52
 -16   9   7    2.30    0.89
 -16   9   6    3.12    1.13
 -16   9   5   60.81    3.90
 -16   9   5   72.27    3.66
 -16   9   4   20.56    1.76
 -16   9   4   20.67    1.51
 -16   9   4   19.97    2.23
 -16   9   4   23.11    2.10
 -16   9   4   20.98    1.68
 -16   9   3   14.57    1.35
 -16   9   3   14.02    1.38
 -16   9   3   18.24    1.95
 -16   9   3   19.02    1.58
 -16   9   3   15.76    1.74
 -16   9   3   16.81    2.36
 -16   9   2    5.41    1.69
 -16   9   2    7.76    1.27
 -16   9   2    8.50    1.92
 -16   9   2    7.99    1.41
 -16   9   2    6.68    1.52
 -16   9   2    7.52    1.15
 -16   9   1    3.20    1.24
 -16   9   1    3.45    1.58
 -16   9   1    3.33    1.42
 -16   9   0    6.39    1.42
 -16   9   0    7.95    1.61
 -16   9  -1    2.90    1.33
 -16   9  -1    1.90    1.46
  16   9   2    8.67    1.41
 -16   9  -2    8.40    1.48
 -16  -9   2    9.11    2.32
 -16   9  -2    8.25    1.48
 -16  -9   3   16.48    2.78
 -16   9  -3   16.71    1.75
 -16  -9   4   17.18    2.95
 -16   9  -4   17.79    1.74
  16   9   4   21.31    2.12
  16   9   5   52.92    3.19
 -16   9  -5   58.02    3.05
 -16  -9   6    2.56    1.29
 -16   9  -6    2.57    1.10
 -16  -9   6    2.62    1.16
  16   9   8    1.55    0.68
 -16  10   7    1.98    0.77
 -16  10   6    2.27    1.01
 -16  10   5    5.57    1.18
 -16  10   4   20.87    2.05
 -16  10   4   19.16    2.16
 -16  10   4   22.69    1.63
 -16  10   3    7.83    1.40
 -16  10   3    9.17    1.73
 -16  10   3    7.79    1.24
 -16  10   3    8.50    1.17
 -16  10   3   11.40    2.14
 -16  10   2    6.05    1.32
 -16  10   2    4.66    1.29
 -16  10   2    3.04    1.63
 -16  10   2    7.01    1.50
 -16  10   2    8.71    2.08
 -16  10   1   10.25    1.52
 -16  10   1   12.90    1.68
 -16  10   1    9.62    1.35
 -16  10   0   40.66    2.75
 -16  10   0   35.12    2.61
 -16  10  -1   10.63    1.75
 -16  10  -1   12.17    1.70
 -16  10  -2    4.96    1.51
 -16  10  -2    5.71    1.61
 -16 -10   2    6.82    2.35
  16  10   2    6.05    1.39
  16  10   2    4.99    1.65
 -16 -10   3   13.13    2.61
 -16  10  -3    8.12    1.59
  16  10   3   11.47    1.58
 -16 -10   4   25.68    3.07
  16  10   4   21.18    2.07
 -16  10  -5    7.34    1.34
  16  10   5    6.90    1.54
  16  10   6    3.74    1.26
 -16  10  -6    2.83    1.08
  16  10   7    2.15    1.00
  16  10   8    1.50    0.50
 -16  11   5    2.29    1.00
 -16  11   4    6.57    1.53
 -16  11   4    6.04    1.63
 -16  11   4    6.89    1.08
 -16  11   3   30.74    2.80
 -16  11   3   29.41    2.41
 -16  11   3   28.49    2.02
 -16  11   2   11.20    1.40
 -16  11   2   14.69    2.17
 -16  11   2   10.65    1.60
 -16  11   2   11.92    1.53
 -16  11   1   10.14    1.35
 -16  11   1   10.22    2.00
 -16  11   1   10.42    1.57
 -16  11   1   11.88    1.64
 -16  11   0   30.46    2.33
 -16  11   0   28.77    2.44
  16  11   1    6.27    1.67
  16  11   1    9.94    1.49
 -16  11  -1   11.01    1.79
 -16  11  -1   12.07    1.72
 -16  11  -2   14.35    1.78
 -16  11  -2   11.33    1.81
 -16 -11   2    8.87    2.47
  16  11   2   12.73    1.56
  16  11   2    8.98    1.80
 -16 -11   3   23.07    3.06
 -16  11  -3   32.49    2.28
  16  11   3   26.10    2.35
  16  11   3   29.34    2.14
  16  11   4    4.30    1.60
 -16  11  -4    6.52    1.43
  16  11   4    4.66    1.47
  16  11   5    1.22    1.39
 -16  11  -5    2.69    1.25
  16  11   5    1.44    1.35
 -16  11  -6    2.50    1.04
  16  11   6    1.77    1.18
  16  11   7    3.00    0.89
 -16  12   3   18.79    2.00
 -16  12   3   19.68    1.68
 -16  12   2    5.28    2.10
 -16  12   2    2.91    1.33
 -16  12   2    3.95    1.29
 -16  12   2    2.77    1.66
 -16  12   1    3.19    1.44
 -16  12   1    2.79    1.84
  16  12  -1    4.97    1.35
 -16  12   1    3.68    1.41
 -16  12   1    2.96    1.05
 -16  12   0   28.85    2.50
  16  12   0   28.74    2.22
  16  12   1    3.02    1.57
  16  12   1    4.30    1.44
 -16  12  -1    2.85    1.53
 -16  12  -1    2.76    1.73
 -16  12  -2    2.85    1.62
  16  12   2    4.78    1.68
 -16  12  -2    4.88    1.54
 -16 -12   2    1.46    2.15
  16  12   2    3.40    1.43
 -16 -12   3   25.29    3.02
 -16  12  -3   18.87    2.06
  16  12   3   22.82    2.14
  16  12   3   25.09    1.94
  16  12   4    2.66    1.39
 -16  12  -4    2.96    1.39
  16  12   5    2.61    1.32
  16  12   5    2.60    1.30
 -16  12  -5    4.66    1.25
  16  12   6   -0.01    1.08
 -16  12  -6   -0.16    1.00
  16  12   7    1.90    0.76
 -16  13   3    9.86    1.67
 -16  13   3    9.34    1.33
 -16  13   2   12.74    1.53
 -16  13   2    9.60    1.84
 -16  13   2   12.45    2.15
  16  13  -1   11.12    1.54
 -16  13   1   11.80    1.67
 -16  13   1   13.55    1.56
 -16  13   1   15.01    2.17
  16  13   0    6.85    1.53
 -16  13   0    5.97    1.85
 -16  13   0    6.45    1.05
 -16  13  -1   15.60    2.00
  16  13   1   12.82    1.80
 -16  13  -1   13.43    1.84
  16  13   2   13.40    1.84
 -16  13  -2   12.38    1.86
 -16 -13   2   10.43    2.44
 -16  13  -2   16.26    1.83
  16  13   2   13.02    1.66
  16  13   3    6.72    1.63
  16  13   3    9.28    1.55
 -16  13  -3    7.44    1.61
  16  13   4    7.12    1.45
 -16  13  -4    4.91    1.43
  16  13   5    0.69    1.22
  16  13   5    4.60    1.24
 -16  13  -5    2.59    1.21
  16  13   6    1.28    0.99
 -16  13  -6    0.74    0.89
  16  13   7    6.92    0.69
 -16  14   3    5.37    1.45
 -16  14   2   -0.77    1.57
 -16  14   2    3.41    1.28
 -16  14   2    1.76    1.84
 -16  14   1   24.47    2.44
 -16  14   1   24.91    2.10
 -16  14   1   23.18    1.87
  16  14   0    6.72    1.44
 -16  14   0    7.78    1.43
 -16  14  -1   25.99    2.30
  16  14   1   23.65    2.13
 -16  14  -1   25.50    2.22
  16  14   2    2.44    1.49
 -16  14  -2    1.64    1.42
 -16  14  -2   -0.32    1.63
  16  14   3    5.23    1.52
  16  14   3    8.04    1.52
 -16  14  -3    6.64    1.61
  16  14   4    2.94    1.38
  16  14   4    4.12    1.33
 -16  14  -4    1.92    1.32
  16  14   5   -0.25    1.12
 -16  14  -5   -0.89    1.13
  16  14   6    2.48    0.89
 -16  14  -6    1.50    0.74
 -16  15   2   -2.41    1.51
 -16  15   2    2.78    1.23
 -16  15   2    1.33    1.78
 -16  15   1    4.26    1.36
 -16  15   1    6.80    1.90
 -16  15   0    4.78    1.76
  16  15   0    3.35    1.30
 -16  15   0    4.30    1.21
  16  15   1    3.41    1.36
 -16  15  -1    2.50    1.38
 -16  15  -1    5.45    1.64
  16  15   2    2.34    1.41
 -16  15  -2    0.93    1.53
  16  15   3    2.36    1.36
 -16  15  -3    1.88    1.41
  16  15   4    2.69    1.20
 -16  15  -4    2.27    1.28
 -16  15  -4    0.09    1.05
  16  15   4    2.33    1.26
 -16  15  -5    3.66    1.03
  16  15   5    5.02    1.08
  16  15   5    2.03    0.91
 -16  16   2    1.59    1.67
 -16  16   2    1.71    1.34
 -16  16   2    2.35    1.13
 -16  16   1    1.50    1.71
 -16  16   1    1.15    1.24
 -16  16   0    6.38    1.72
  16  16   0    2.35    1.12
 -16  16  -1    5.09    1.59
 -16  16  -1    3.86    1.18
 -16  16  -1    3.24    1.33
  16  16   1    1.89    1.20
 -16  16  -2    4.87    1.53
  16  16   2    3.57    1.27
 -16  16  -3    3.64    1.37
  16  16   3    2.47    1.20
 -16  16  -4    0.02    0.86
 -16  16  -4    0.19    1.11
 -16  16  -5    3.61    0.84
 -16  17   2    2.76    1.17
 -16  17   2    1.62    0.98
 -16  17   1    4.41    1.41
 -16  17   1    7.14    1.24
 -16  17   1    5.03    1.59
 -16  17   0    2.68    1.58
 -16  17  -1    6.81    1.28
 -16  17  -1    8.56    1.59
  16  17   1    4.00    1.09
 -16  17  -2    3.33    1.33
  16  17   2    2.40    1.08
 -16  17  -3    2.68    1.22
 -16  17  -4    2.18    0.95
  16  17   4    1.53    0.79
 -16  18   2    2.53    0.86
 -16  18   1    5.20    1.39
 -16  18   1    2.69    1.15
 -16  18   1    5.51    1.05
 -16  18   0    3.27    1.35
 -16  18  -1    6.29    1.39
  16  18   1    3.33    0.80
 -16  18  -2    1.08    1.22
  16  18   2    1.05    0.79
  16  18   3    0.95    0.73
 -16  18  -3    2.45    1.01
 -16  18  -3    0.20    0.83
 -16  18  -4    0.71    0.72
  16  18   4    0.75    0.55
 -16  19   1    2.17    0.89
 -16  19   0    3.31    1.18
 -16  19  -1    2.60    1.10
 -16  19  -1    1.21    0.98
  16  19   2    3.51    0.57
 -16  19  -2    2.76    0.91
 -16  19  -3    2.68    0.74
 -16  20   0    1.83    0.73
 -16  20  -1    1.28    0.77
 -16  20  -1    0.24    0.69
 -17   0   0    2.12    1.06
 -17   0   1    1.08    1.06
 -17   0   2    0.18    1.73
  17   0   3    1.73    2.07
 -17   0   3    0.71    1.53
 -17   0   3   -0.53    1.65
  17   0   4    4.02    2.32
 -17   0   4   -0.32    1.70
 -17   0   5    4.09    1.63
 -17   0   5    2.61    1.91
  17   0   5   -0.93    2.57
 -17   0   6    2.86    1.67
 -17   0   6    3.25    1.56
 -17   0   6    2.18    1.09
 -17   0   7    1.94    1.34
 -17   0   7   -0.71    1.43
 -17   0   7   -0.19    1.46
 -17   0   8    1.52    1.05
 -17   0   8    0.94    0.96
 -17   1   8    1.35    1.04
 -17   1   8    1.28    0.96
 -17   1   7    2.36    1.43
 -17   1   7    5.86    1.30
 -17   1   6    9.52    1.69
 -17   1   6    8.73    1.16
 -17   1   5    3.62    1.57
  17  -1   5    5.06    2.74
 -17   1   5    4.42    1.16
 -17   1   5    3.20    1.77
  17  -1   4    4.01    2.58
 -17   1   4    3.75    1.15
 -17   1   3    5.21    1.71
 -17   1   3    6.04    1.69
 -17   1   3    5.49    1.14
 -17   1   2   22.43    1.73
 -17   1   2   27.14    2.07
 -17  -1   0    8.18    1.48
 -17  -1   0    6.55    1.15
 -17   1   0    8.47    1.25
 -17  -1   1   29.66    1.83
 -17  -1   1   20.77    2.26
 -17  -1   2   16.45    2.17
  17   1   3    2.97    1.87
 -17  -1   3    2.88    1.84
 -17  -1   3    5.24    1.58
 -17  -1   3    7.38    1.79
 -17  -1   4    2.52    1.92
 -17  -1   4    2.82    1.75
 -17  -1   5    3.98    1.58
 -17  -1   5    1.46    1.89
 -17  -1   6    7.16    1.60
 -17  -1   6    8.64    1.72
 -17  -1   6    9.08    1.90
 -17  -1   7    4.17    1.53
 -17  -1   7    3.28    1.39
 -17  -1   8    0.55    1.09
 -17  -1   8    1.48    0.98
 -17   2   8    2.57    1.00
 -17   2   8    1.59    0.93
 -17   2   7    1.94    1.33
 -17   2   6    8.63    1.66
 -17   2   6    7.71    1.74
 -17   2   5   23.48    2.37
 -17   2   5   17.87    2.17
 -17   2   5   21.68    2.07
 -17   2   5   20.19    1.58
  17  -2   5   23.25    3.44
 -17   2   4    2.70    1.12
 -17   2   4    0.70    1.84
 -17   2   4    1.91    1.96
  17  -2   4    2.58    2.61
 -17   2   4    3.79    1.73
 -17   2   3    1.12    1.52
 -17   2   3    2.10    1.66
 -17   2   3    1.21    1.05
 -17   2   2   24.39    1.77
 -17  -2  -1   20.03    1.60
 -17  -2   0   21.64    1.63
 -17  -2   0   25.75    2.03
 -17   2   0   20.12    1.73
 -17  -2   1   25.40    1.76
 -17  -2   1   23.78    2.32
 -17  -2   2   35.46    2.91
 -17  -2   3    3.58    1.90
 -17  -2   3    4.86    1.66
 -17  -2   3    0.99    1.61
 -17  -2   4    4.96    2.13
 -17  -2   4    4.74    1.85
 -17  -2   5   27.15    2.49
 -17  -2   5   22.05    2.16
 -17  -2   6    6.24    1.91
 -17  -2   6   10.46    1.83
 -17  -2   6    9.12    1.61
 -17  -2   7   -0.54    1.33
 -17  -2   7    1.15    1.51
 -17  -2   7    0.42    0.96
 -17  -2   8    3.31    0.99
 -17  -2   8    2.60    1.12
 -17   3   8    2.04    0.96
 -17   3   7    1.10    1.26
 -17   3   6    2.10    1.41
 -17   3   6    2.03    1.57
 -17   3   6    3.45    1.56
 -17   3   6    3.09    1.52
 -17   3   5    2.21    1.03
 -17   3   5    0.57    1.90
  17  -3   5    4.01    3.00
 -17   3   5    3.29    1.50
 -17   3   5    4.48    1.67
 -17   3   5    3.66    1.81
 -17   3   4    4.13    1.14
 -17   3   4    6.41    2.01
 -17   3   4    7.65    1.91
 -17   3   4    6.23    1.79
 -17   3   3   16.84    2.02
 -17   3   3   17.14    1.46
 -17   3   3   12.87    1.88
 -17   3   2   56.53    3.15
 -17   3   2   60.23    3.51
 -17   3   2   58.37    3.57
 -17   3   1    9.58    1.26
 -17  -3  -1    6.68    1.19
 -17  -3   0   18.16    1.47
 -17  -3   0   19.19    1.95
 -17  -3   1    6.57    1.75
 -17  -3   1    6.26    1.14
 -17  -3   2   42.28    3.40
 -17  -3   2   51.84    3.08
 -17  -3   3   17.62    1.93
 -17  -3   3   16.20    1.96
 -17  -3   3   13.45    2.38
 -17  -3   4    7.03    1.87
 -17  -3   4    4.33    2.19
 -17  -3   5    2.62    1.85
 -17  -3   5    5.14    1.57
  17   3   5    3.32    1.35
 -17  -3   6    1.08    1.74
 -17  -3   6    2.02    1.38
 -17  -3   7    1.26    1.38
 -17  -3   7    2.97    1.51
 -17  -3   7    2.35    1.05
 -17  -3   8    2.52    0.93
 -17  -3   8    1.71    1.08
 -17   4   7    2.43    1.14
 -17   4   6    5.24    1.38
 -17   4   6    4.72    1.51
 -17   4   6    4.82    1.50
 -17   4   5    6.56    2.09
 -17   4   5    3.20    1.60
 -17   4   5    3.37    1.80
 -17   4   5    4.10    1.47
 -17   4   5    4.59    1.00
 -17   4   5    4.42    1.62
  17  -4   5    4.96    3.18
 -17   4   4   18.44    2.20
 -17   4   4   19.27    1.55
 -17   4   4   18.52    1.90
 -17   4   4   21.57    2.10
 -17   4   4   18.44    2.27
 -17   4   3    9.50    1.23
 -17   4   3    5.68    1.73
 -17   4   3   10.54    1.78
 -17   4   2   10.20    1.60
 -17   4   2   12.95    1.32
 -17   4   2   12.29    1.82
 -17  -4  -1   63.24    3.17
 -17   4   1   52.09    3.50
 -17   4   1   56.40    3.24
 -17  -4   0   38.19    2.17
 -17  -4   0   32.19    2.59
 -17  -4   1   70.99    3.67
 -17  -4   1   63.96    4.16
 -17  -4   2   16.78    2.23
 -17  -4   2    9.58    1.61
 -17  -4   3   11.57    1.76
 -17  -4   3   14.00    2.34
 -17  -4   4   22.75    2.33
 -17  -4   4   27.91    2.96
 -17  -4   5    6.29    1.87
 -17  -4   5    3.46    1.51
  17   4   5    6.80    1.51
 -17  -4   6    5.05    1.80
 -17  -4   6    4.58    1.38
 -17  -4   7    3.55    1.36
 -17  -4   7    2.60    1.44
 -17  -4   8    1.13    0.85
 -17  -4   8    1.94    1.09
 -17   5   7    2.04    1.06
 -17   5   7    1.37    1.14
 -17   5   6    2.71    1.41
 -17   5   6    2.86    1.35
 -17   5   6    2.22    1.23
 -17   5   5   11.13    1.87
 -17   5   5   11.67    1.58
 -17   5   5    9.34    2.17
 -17   5   5   13.20    1.73
 -17   5   5   12.56    1.69
 -17   5   5   10.78    1.66
  17  -5   5    7.22    3.30
 -17   5   4   11.34    1.86
 -17   5   4   12.76    2.17
 -17   5   4   17.25    2.09
 -17   5   4   14.77    1.35
 -17   5   4   14.45    1.91
 -17   5   4   11.66    1.73
 -17   5   4   17.33    1.66
 -17   5   4   10.58    1.69
 -17   5   4   10.33    1.68
 -17   5   3   15.00    1.74
 -17   5   3   12.67    1.87
 -17   5   3   13.46    1.38
 -17   5   3   13.85    1.88
 -17   5   2    6.10    1.61
 -17   5   2    3.54    1.48
 -17   5   2    4.78    1.17
 -17   5   2    7.39    1.47
 -17   5   2    4.92    1.58
 -17  -5  -1   27.38    1.83
 -17   5   1   32.52    2.33
 -17   5   0    2.26    1.25
 -17  -5   0    0.57    0.96
 -17   5   0    1.20    1.43
 -17  -5   0    1.24    1.46
 -17   5  -1   29.50    2.31
 -17  -5   1   36.00    2.71
 -17   5  -2    2.54    1.33
 -17  -5   2    7.15    2.02
 -17  -5   2    4.93    1.45
 -17  -5   3   10.73    2.32
 -17  -5   3   13.04    1.75
 -17  -5   4   10.10    2.50
 -17  -5   4   10.59    1.91
 -17  -5   5    7.68    1.49
  17   5   5   10.25    1.63
 -17  -5   6    1.15    1.67
 -17  -5   7    0.94    1.26
 -17  -5   7    1.75    1.33
 -17  -5   8    3.13    0.79
 -17  -5   8    3.25    1.04
 -17   6   7    1.48    1.08
 -17   6   6   10.06    1.43
 -17   6   6    9.04    1.37
 -17   6   6    8.89    1.33
 -17   6   5   22.39    2.10
 -17   6   5   20.11    1.80
 -17   6   5   20.78    1.87
 -17   6   5   21.64    2.00
 -17   6   5   19.75    1.86
  17  -6   5   23.74    3.74
 -17   6   5   22.89    2.43
 -17   6   4   28.86    2.61
 -17   6   4   26.48    2.40
 -17   6   4   26.06    2.16
 -17   6   4   27.64    2.19
 -17   6   4   29.93    2.34
 -17   6   4   28.64    2.08
 -17   6   4   27.92    2.48
 -17   6   4   30.04    2.15
 -17   6   3   69.37    3.79
 -17   6   3   70.77    4.12
 -17   6   3   72.25    3.81
 -17   6   3   68.59    3.96
 -17   6   3   71.43    4.15
 -17   6   2    6.91    1.54
 -17   6   2    9.17    1.67
 -17   6   2   10.77    1.25
 -17   6   2   10.55    1.53
 -17   6   2    7.39    1.69
 -17   6   1    2.87    1.50
 -17   6   1    5.26    1.21
 -17   6   1    4.40    1.42
 -17  -6  -1    4.79    0.96
 -17   6   1    5.27    1.51
 -17  -6   0    7.22    1.06
 -17   6   0    6.65    1.29
 -17  -6   0    7.94    1.70
 -17  -6   1    7.03    1.82
 -17  -6   2   14.09    2.30
 -17  -6   3   74.77    4.23
 -17  -6   3   79.08    5.03
 -17  -6   4   35.56    2.43
 -17  -6   4   38.68    3.48
 -17  -6   4   35.63    2.61
  17   6   4   32.31    2.53
  17   6   5   24.80    2.09
 -17  -6   5   29.38    2.40
 -17  -6   6    9.91    1.75
 -17  -6   7    1.17    1.18
 -17  -6   7    0.99    1.20
 -17  -6   8    7.63    1.04
 -17   7   8    0.65    0.64
 -17   7   7    1.88    1.04
 -17   7   6   -0.02    1.18
 -17   7   6    1.28    1.09
 -17   7   5   37.53    2.38
 -17   7   5   32.42    2.31
 -17   7   5   37.45    2.47
  17  -7   5   30.14    4.23
 -17   7   5   38.96    2.33
 -17   7   5   37.36    2.85
 -17   7   4    8.56    1.31
 -17   7   4    7.11    1.62
 -17   7   4    8.18    1.48
 -17   7   4    8.20    1.36
 -17   7   4    6.41    1.68
 -17   7   4    8.62    1.79
 -17   7   4    8.63    1.96
 -17   7   4    5.02    1.37
 -17   7   3   77.66    4.04
 -17   7   3   85.20    4.41
 -17   7   3   78.95    4.24
 -17   7   3   71.13    4.02
 -17   7   3   79.13    4.41
 -17   7   3   76.89    4.19
 -17   7   2   11.05    1.77
 -17   7   2    8.95    1.25
 -17   7   2    9.71    1.58
 -17   7   2    9.11    1.83
 -17   7   2   10.76    1.69
 -17   7   1    4.03    1.44
 -17   7   1    1.13    1.41
 -17   7   1    4.90    1.15
 -17   7   1    3.60    1.50
 -17  -7   0    0.84    1.53
 -17   7   0    1.15    1.17
 -17   7   0    1.36    1.30
 -17  -7   0    0.60    0.89
 -17   7  -1    4.36    1.29
 -17  -7   1    3.56    1.82
 -17  -7   2    7.49    2.19
 -17  -7   3   69.26    3.95
 -17  -7   3   74.27    4.93
 -17  -7   4    7.84    1.65
 -17  -7   4    8.20    2.52
  17   7   4    6.12    1.62
 -17  -7   5   28.95    2.42
  17   7   5   27.98    2.26
 -17  -7   6    0.47    1.45
 -17  -7   7    2.65    1.08
 -17  -7   7    1.34    1.08
 -17  -7   8    1.71    0.79
  17   7   8    1.87    0.80
 -17   8   8    0.85    0.54
 -17   8   7    2.71    0.94
 -17   8   6    3.16    1.17
 -17   8   5    2.08    1.21
 -17   8   5    1.08    1.07
 -17   8   5    3.49    1.79
 -17   8   4   71.46    3.92
 -17   8   4   68.61    3.93
 -17   8   4   69.47    3.73
 -17   8   4   74.80    4.24
 -17   8   4   71.74    4.14
 -17   8   4   69.14    3.77
 -17   8   3    8.02    1.75
 -17   8   3    8.20    1.46
 -17   8   3    5.30    1.14
 -17   8   3    7.36    1.58
 -17   8   3    5.21    1.36
 -17   8   2    8.73    1.69
 -17   8   2    8.01    1.24
 -17   8   2    7.89    1.51
 -17   8   2    8.69    1.83
 -17   8   2    8.29    1.64
 -17   8   1    2.44    1.42
 -17   8   1    1.92    1.16
 -17   8   1    0.13    1.58
 -17  -8   0    4.57    1.71
 -17   8   0    4.45    1.33
 -17  -8   0    3.75    0.93
 -17   8   0    4.65    1.51
 -17  -8   1    1.21    1.80
 -17   8  -1    1.10    1.36
 -17  -8   2   12.71    2.45
 -17   8  -2    8.49    1.48
 -17  -8   3   12.43    2.60
 -17   8  -3    7.08    1.40
 -17  -8   4   83.90    5.35
 -17   8  -4   71.09    4.05
  17   8   4   79.52    4.33
  17   8   5    2.19    1.47
 -17  -8   5    1.31    1.59
 -17  -8   6    4.44    1.37
 -17  -8   7    2.19    0.91
  17   8   8    1.23    0.69
 -17   9   7    2.29    0.83
 -17   9   6    5.03    1.11
 -17   9   5   12.38    1.88
 -17   9   5   12.58    1.40
 -17   9   4   22.49    1.74
 -17   9   4   20.26    1.59
 -17   9   4   20.75    2.22
 -17   9   4   17.03    2.00
 -17   9   4   16.82    1.65
 -17   9   4   17.87    1.39
 -17   9   3   81.97    4.23
 -17   9   3   72.39    4.14
 -17   9   3   90.47    4.60
 -17   9   3   77.33    4.24
 -17   9   3   81.46    4.41
 -17   9   2   -0.26    1.58
 -17   9   2    2.43    1.12
 -17   9   2    1.35    1.89
 -17   9   2    2.28    1.34
 -17   9   2    1.67    1.42
 -17   9   2    3.34    1.06
 -17   9   1    2.29    1.26
 -17   9   1    0.87    1.69
 -17   9   1    2.84    1.43
 -17   9   0    1.16    1.34
 -17   9   0    3.16    1.58
 -17  -9   1    1.96    2.02
 -17   9  -1    2.47    1.48
 -17  -9   2    1.73    2.20
 -17   9  -2    0.29    1.46
  17   9   2    2.92    1.26
 -17  -9   3   82.88    5.60
 -17   9  -3   88.64    4.68
 -17  -9   4   22.31    3.01
 -17   9  -4   19.39    1.78
  17   9   4   20.45    2.09
  17   9   5    9.28    1.61
 -17   9  -5   11.57    1.40
 -17  -9   5    8.85    1.62
 -17  -9   6    3.66    1.28
 -17  -9   6    1.98    1.15
  17   9   7    2.61    1.02
  17   9   8    0.91    0.55
 -17  10   6    3.33    0.97
 -17  10   5    1.33    1.05
 -17  10   4   17.35    2.09
 -17  10   4   19.33    1.98
 -17  10   4   20.48    1.52
 -17  10   3    4.40    1.33
 -17  10   3    7.53    1.75
 -17  10   3    6.55    1.12
 -17  10   3    4.91    1.10
 -17  10   2    0.27    1.56
 -17  10   2    0.57    1.16
 -17  10   2    3.92    1.93
 -17  10   2   -1.04    1.28
 -17  10   2    0.54    1.39
 -17  10   1    5.80    1.39
 -17  10   1    4.61    1.82
 -17  10   1    6.94    1.29
 -17  10   1    7.56    1.56
 -17  10   0    4.46    1.48
 -17  10   0    4.73    1.72
 -17 -10   1    9.97    2.28
 -17  10  -1    7.31    1.71
 -17  10  -1    7.24    1.62
  17  10   2    1.85    1.31
 -17  10  -2    0.58    1.53
  17  10   2    2.15    1.56
 -17 -10   2    3.05    2.20
 -17 -10   3    6.01    2.50
  17  10   3    8.30    1.50
 -17  10  -3    5.35    1.49
  17  10   4   23.00    1.87
 -17  10  -4   18.52    1.81
  17  10   4   19.86    2.09
  17  10   5    3.01    1.37
  17  10   5    2.29    1.42
 -17  10  -5    1.57    1.23
 -17 -10   6    1.95    1.09
  17  10   6    3.27    1.23
 -17  10  -6    2.94    1.02
  17  10   7    4.71    0.97
 -17  11   4    6.53    1.66
 -17  11   4    5.39    1.53
 -17  11   3   21.98    1.74
 -17  11   3   25.31    2.21
 -17  11   2   -0.92    1.69
 -17  11   2    3.38    1.23
 -17  11   2    0.80    1.38
 -17  11   2    4.12    1.99
 -17  11   2    1.99    1.17
 -17  11   1    3.05    1.34
 -17  11   1    3.27    1.46
 -17  11   1    3.21    1.18
 -17  11   1    3.17    1.76
 -17  11   0    2.44    1.77
 -17  11   0    1.84    1.48
  17  11   1    0.55    1.51
 -17 -11   1    4.21    2.07
 -17  11  -1    4.12    1.55
 -17  11  -1    1.99    1.59
 -17  11  -2    1.42    1.54
  17  11   2    4.77    1.39
 -17 -11   2    1.92    2.29
  17  11   2    2.47    1.62
  17  11   3   22.83    1.90
 -17 -11   3   24.99    3.01
  17  11   3   18.78    2.15
 -17  11  -3   23.28    2.07
 -17  11  -4    7.07    1.45
  17  11   4    7.03    1.49
  17  11   4    4.05    1.60
 -17  11  -5    4.14    1.23
  17  11   5    4.49    1.36
  17  11   5    2.36    1.36
 -17  11  -6   -1.01    1.00
  17  11   6    0.76    1.14
  17  11   7    2.04    0.83
 -17  11  -7    1.46    0.58
 -17  12   3   18.64    1.98
 -17  12   3   13.94    1.47
 -17  12   2   -0.41    1.69
 -17  12   2    2.64    1.29
 -17  12   2    0.93    1.31
 -17  12   2   -0.13    1.94
 -17  12   1    2.84    1.87
  17  12  -1    1.55    1.35
 -17  12   1   -0.20    1.35
 -17  12   1    2.78    1.41
 -17  12   1    3.27    1.08
 -17  12   0    5.62    1.62
 -17  12   0    6.97    1.87
  17  12   0    7.10    1.54
 -17  12   0    6.99    1.55
 -17  12  -1    4.14    1.77
 -17 -12   1    2.68    2.01
  17  12   1    3.15    1.58
 -17  12  -1    3.63    1.60
  17  12   2   -0.39    1.62
  17  12   2    2.38    1.45
 -17 -12   2    4.75    2.25
 -17  12  -2   -0.39    1.61
 -17  12  -3   15.31    1.90
  17  12   3   21.02    1.81
  17  12   3   16.69    1.98
 -17  12  -4    5.32    1.49
  17  12   4    8.63    1.47
 -17  12  -5    0.60    1.19
  17  12   5    0.60    1.26
  17  12   5    0.48    1.23
 -17  12  -6    0.56    0.87
  17  12   6    1.80    1.03
  17  12   7    1.35    0.67
 -17  13   3    4.48    1.56
 -17  13   2    0.04    1.68
 -17  13   2    1.56    1.25
 -17  13   2    1.90    1.98
 -17  13   1   10.44    1.62
 -17  13   1   11.94    2.13
 -17  13   1    9.63    1.49
  17  13  -1    7.83    1.46
 -17  13   0    3.88    1.86
  17  13   0    1.87    1.43
 -17  13   0    2.61    1.42
 -17  13  -1   10.20    1.88
 -17 -13   1    5.16    2.08
  17  13   1    6.88    1.64
 -17  13  -1   12.43    1.77
 -17  13  -2    0.50    1.55
  17  13   2    1.76    1.57
  17  13   2    2.89    1.51
 -17  13  -3    3.07    1.53
  17  13   3    4.93    1.59
  17  13   3    6.56    1.47
 -17  13  -4   13.67    1.66
  17  13   4   14.77    1.56
 -17  13  -5   -0.04    1.14
  17  13   5    2.79    1.20
  17  13   5    0.91    1.17
 -17  13  -6    2.06    0.81
  17  13   6    2.12    0.94
 -17  14   3    3.80    1.39
 -17  14   2   -0.24    1.85
 -17  14   2    0.38    1.58
 -17  14   2    2.35    1.23
 -17  14   1   17.32    2.14
 -17  14   1   17.05    1.75
 -17  14   1   12.67    1.52
 -17  14   0    2.35    1.33
 -17  14   0    2.40    1.79
  17  14   0    2.10    1.37
 -17  14  -1   18.06    2.04
  17  14   1   16.82    1.83
 -17  14  -1   15.19    1.84
 -17  14  -2    1.26    1.58
  17  14   2    2.30    1.47
 -17  14  -3    2.71    1.46
  17  14   3    0.33    1.38
  17  14   3    0.10    1.41
 -17  14  -4    1.24    1.10
 -17  14  -4    0.95    1.29
  17  14   4    2.70    1.30
 -17  14  -5    0.79    1.04
  17  14   5    0.96    1.08
  17  14   6    3.14    0.80
 -17  15   2   -0.11    1.47
 -17  15   2    2.74    1.18
 -17  15   2    1.39    1.77
 -17  15   1    8.35    1.43
 -17  15   1    8.87    1.94
  17  15   0    2.93    1.23
 -17  15   0    4.12    1.25
 -17  15   0    3.94    1.79
  17  15   1    5.80    1.41
 -17  15  -1    6.76    1.36
 -17  15  -1    9.97    1.57
 -17  15  -1    9.28    1.76
 -17  15  -2    1.74    1.51
  17  15   2    1.15    1.32
 -17  15  -3    7.25    1.46
  17  15   3    5.73    1.34
 -17  15  -4    0.63    1.18
  17  15   4    1.91    1.14
 -17  15  -5    0.93    0.85
  17  15   5    0.82    0.83
 -17  16   2    3.57    1.62
 -17  16   2    6.05    1.39
 -17  16   2    6.49    1.20
 -17  16   1    3.88    1.67
 -17  16   1    0.55    1.41
 -17  16   1    3.09    1.23
  17  16   0    1.77    1.08
 -17  16   0    3.67    1.59
  17  16   1    1.44    1.16
 -17  16  -1    2.07    1.10
 -17  16  -1    3.34    1.53
 -17  16  -1    4.39    1.33
 -17  16  -2    6.38    1.51
  17  16   2    4.68    1.25
 -17  16  -3    4.16    1.31
  17  16   3    3.35    1.16
 -17  16  -4    1.38    1.06
 -17  16  -5    2.71    0.78
 -17  16  -5    4.38    0.71
 -17  17   2    2.78    1.10
 -17  17   2    2.51    0.94
 -17  17   1    5.75    1.55
 -17  17   1    2.96    1.30
 -17  17   1    4.54    1.15
 -17  17   0    0.75    1.47
  17  17   1    3.72    1.01
 -17  17  -1    5.35    1.45
  17  17   2    2.43    1.03
 -17  17  -2    4.57    1.34
 -17  17  -3    2.84    0.93
 -17  17  -3    0.41    0.97
 -17  17  -3    3.15    1.13
  17  17   4    1.54    0.73
 -17  17  -4    2.40    0.89
 -17  17  -4    2.12    0.74
 -17  18   1   11.25    1.31
 -17  18   1   11.38    1.49
 -17  18   0    0.81    1.30
 -17  18  -1   12.37    1.45
 -17  18  -1   10.79    1.33
 -17  18  -2   -0.70    1.03
  17  18   2    1.24    0.72
 -17  18  -2    1.71    1.11
 -17  18  -3    1.24    0.72
  17  18   3    1.33    0.68
 -17  18  -3    0.51    0.92
  17  18   4    0.21    0.42
 -17  19   1    1.89    0.84
 -17  19   0    2.25    1.06
 -17  19  -1    1.93    1.03
 -17  19  -1    0.57    0.87
 -17  19  -2    6.16    0.93
 -17  19  -2    5.46    0.86
 -17  20   0    2.03    0.59
 -17  20  -1    1.84    0.55
 -18   0   0   24.72    1.82
 -18   0   1   36.62    2.25
 -18   0   2    6.65    1.54
 -18   0   2    7.96    1.84
 -18   0   3    0.42    1.11
 -18   0   3    0.04    1.54
 -18   0   3    1.86    1.68
  18   0   3    2.21    1.98
 -18   0   4   11.48    1.42
 -18   0   4   11.11    1.98
 -18   0   5   37.38    2.43
 -18   0   5   42.33    3.07
 -18   0   5   40.08    2.82
 -18   0   6   10.87    1.30
 -18   0   6   10.98    1.73
 -18   0   6   10.12    1.76
 -18   0   7   11.79    1.58
 -18   0   7    7.60    1.42
 -18   0   8    3.12    1.00
 -18   0   8    2.79    0.93
 -18   1   8    6.28    1.09
 -18   1   8    9.47    1.04
 -18   1   7    1.96    1.24
 -18   1   6    7.32    1.66
 -18   1   6    8.38    1.18
 -18   1   5    6.55    1.69
  18  -1   5    4.54    2.73
 -18   1   5    4.06    1.15
 -18   1   5    4.12    1.82
  18  -1   4    0.92    2.50
 -18   1   4    0.92    1.14
 -18   1   3    1.02    1.72
 -18   1   3    1.06    1.64
 -18   1   3    1.77    1.11
 -18   1   2   11.15    1.34
 -18   1   2   14.75    1.73
 -18  -1   0   15.52    1.43
 -18   1   0   15.05    1.54
 -18  -1   1    2.43    1.61
 -18  -1   1    4.51    1.14
 -18  -1   2   14.84    1.47
 -18  -1   2   16.67    1.83
 -18  -1   2   18.42    2.03
 -18  -1   3    2.30    1.95
 -18  -1   3    1.71    1.74
 -18  -1   3    3.05    1.66
 -18  -1   4    0.85    1.83
 -18  -1   5    4.81    2.00
 -18  -1   5    3.84    1.63
 -18  -1   6    7.56    1.73
 -18  -1   6    5.45    1.85
 -18  -1   6    5.82    1.62
 -18  -1   6    8.84    1.28
 -18  -1   7    2.04    1.29
 -18  -1   7    5.64    1.47
 -18  -1   7    2.71    1.51
 -18  -1   8    7.86    1.03
 -18  -1   8    5.24    1.10
 -18   2   8    2.81    0.88
 -18   2   8    2.34    0.92
 -18   2   7    0.32    1.29
 -18   2   6    6.80    1.62
 -18   2   6    4.84    1.56
 -18   2   6    1.79    1.59
 -18   2   5   11.51    1.74
  18  -2   5    9.22    2.94
 -18   2   5    7.87    1.23
 -18   2   5    7.44    1.84
 -18   2   5   10.04    2.03
 -18   2   4    2.42    1.13
 -18   2   4    0.83    1.81
  18  -2   4    0.08    2.68
 -18   2   4    2.02    1.78
 -18   2   3    4.47    1.81
 -18   2   3    2.08    1.64
 -18   2   3    4.99    1.19
 -18   2   2    8.66    1.57
 -18   2   2   12.25    1.35
 -18   2   1   28.80    1.99
 -18   2   1   30.34    2.44
 -18  -2   0    3.50    1.41
 -18  -2   0    2.49    1.08
 -18  -2   1   43.18    2.51
 -18  -2   1   40.84    3.03
 -18  -2   2    8.04    1.62
 -18  -2   2   10.63    1.83
 -18  -2   2   11.72    1.36
 -18  -2   2    8.72    2.03
 -18  -2   3    3.35    1.66
 -18  -2   3    3.45    1.84
 -18  -2   3    5.27    2.03
 -18  -2   4    2.19    1.80
 -18  -2   4    2.96    2.17
 -18  -2   5    9.25    1.72
 -18  -2   5   10.39    2.06
 -18  -2   6    6.14    1.57
 -18  -2   6    6.65    1.87
 -18  -2   6    6.74    1.76
 -18  -2   7   -0.27    1.44
 -18  -2   7   -0.03    1.31
 -18  -2   8    2.79    0.93
 -18  -2   8    4.08    1.07
 -18   3   7    9.95    1.41
 -18   3   6    1.22    1.32
 -18   3   6    1.53    1.48
 -18   3   6   -0.68    1.47
 -18   3   6    1.98    1.45
 -18   3   5    5.42    1.67
 -18   3   5    5.63    1.54
 -18   3   5    4.79    1.88
 -18   3   5    3.94    2.05
 -18   3   5    3.83    1.09
  18  -3   5    2.58    3.00
 -18   3   4    2.93    1.94
 -18   3   4    4.94    1.94
 -18   3   4    5.45    1.19
 -18   3   4    6.97    1.83
 -18   3   3    7.81    1.22
 -18   3   3    7.37    1.73
 -18   3   3    6.49    1.79
 -18   3   2   52.07    2.92
 -18   3   1    7.57    1.74
 -18   3   1    3.91    1.20
 -18  -3  -1    2.94    1.10
 -18   3   1    3.25    1.42
 -18  -3   0   65.45    4.01
 -18  -3   0   73.62    4.36
 -18   3  -1    4.22    1.27
 -18  -3   1    4.66    1.74
 -18  -3   1    3.64    1.16
 -18  -3   2   44.23    3.51
 -18  -3   2   51.67    3.16
 -18  -3   2   53.91    3.30
 -18  -3   3    6.02    2.10
 -18  -3   3   10.65    1.78
 -18  -3   3    7.92    1.77
 -18  -3   4    6.60    1.88
 -18  -3   4    5.11    2.22
 -18  -3   5    5.12    1.94
 -18  -3   5    3.60    1.56
  18   3   5    3.70    1.35
 -18  -3   6    1.07    1.74
 -18  -3   6    1.93    1.43
 -18  -3   7    8.96    1.48
 -18  -3   7    9.26    1.58
 -18  -3   7    8.34    1.16
 -18  -3   8    1.79    0.87
 -18  -3   8    0.86    1.01
 -18   4   7    1.85    1.07
 -18   4   6    4.04    1.30
 -18   4   6    2.32    1.36
 -18   4   6    2.48    1.39
 -18   4   5   -0.48    2.05
 -18   4   5    3.35    1.57
 -18   4   5    2.63    1.74
 -18   4   5    1.53    1.42
 -18   4   5    1.90    1.00
 -18   4   5    1.87    1.52
  18  -4   5    2.83    3.06
 -18   4   4    5.25    1.80
 -18   4   4    2.53    1.88
 -18   4   4    4.41    1.99
 -18   4   4    5.48    1.58
 -18   4   4    3.28    1.12
 -18   4   3   20.03    1.60
 -18   4   3   18.62    2.14
 -18   4   3   15.74    2.12
 -18   4   2   63.07    3.56
 -18   4   2   53.64    3.31
 -18   4   2   61.97    3.11
 -18  -4  -1    8.98    1.20
 -18   4   1   10.16    1.77
 -18   4   0   18.31    2.02
 -18  -4   0   20.79    1.48
 -18  -4   0   17.81    1.92
 -18   4  -1    8.15    1.63
 -18  -4   1    8.30    1.26
 -18  -4   1    9.38    1.92
 -18   4  -2   55.73    3.31
 -18  -4   2   56.19    3.42
 -18  -4   2   60.36    3.94
 -18  -4   3   19.73    2.13
 -18  -4   3   28.85    2.85
 -18  -4   4    4.87    1.81
 -18  -4   4    5.25    2.21
 -18  -4   5    0.64    1.47
 -18  -4   5    0.47    2.14
 -18  -4   5    0.55    1.80
  18   4   5    2.38    1.46
 -18  -4   6    3.87    1.77
 -18  -4   6    3.77    1.34
 -18  -4   7    2.56    1.32
 -18  -4   7    4.57    1.06
 -18  -4   7    1.90    1.39
 -18  -4   8    0.91    0.80
 -18  -4   8    0.33    0.98
 -18   5   7    2.57    1.02
 -18   5   7    0.52    1.09
 -18   5   6    1.39    1.30
 -18   5   6    2.57    1.33
 -18   5   6    1.66    1.20
 -18   5   5    2.60    1.71
 -18   5   5    3.11    1.35
 -18   5   5    1.68    1.45
 -18   5   5    2.99    1.45
 -18   5   5    0.86    1.99
 -18   5   5    1.10    1.45
  18  -5   5    3.48    3.13
 -18   5   4   11.40    1.30
 -18   5   4   11.91    1.86
 -18   5   4   10.43    1.68
 -18   5   4   13.96    1.60
 -18   5   4   10.05    1.68
 -18   5   4    6.42    1.58
 -18   5   4   12.29    2.17
 -18   5   4   12.87    2.03
 -18   5   4    9.44    1.85
 -18   5   3   42.04    2.52
 -18   5   3   41.76    2.95
 -18   5   3   41.58    2.80
 -18   5   3   42.54    2.96
 -18   5   2   20.02    2.07
 -18   5   2   20.80    2.10
 -18   5   2   21.24    2.01
 -18  -5  -1    4.34    1.06
 -18   5   1    6.88    1.59
 -18   5   0    0.70    1.46
 -18  -5   0    0.44    1.03
 -18  -5   0    2.54    1.52
 -18   5   0    1.60    1.28
 -18   5  -1    3.83    1.50
 -18  -5   1    6.43    1.22
 -18  -5   1    4.37    1.81
 -18   5  -2   18.47    1.83
 -18  -5   2   17.87    2.49
 -18  -5   2   23.56    1.98
 -18  -5   3   34.35    3.31
 -18  -5   3   37.77    2.66
 -18  -5   4    8.67    2.51
 -18  -5   4   12.91    1.92
 -18  -5   5    2.21    1.42
  18   5   5    2.88    1.48
 -18  -5   5    2.19    2.17
 -18  -5   6   -0.21    1.67
 -18  -5   7    3.05    1.04
 -18  -5   7    0.15    1.27
 -18  -5   7    3.00    1.26
 -18  -5   8    5.21    0.76
 -18  -5   8    5.00    0.98
 -18   6   8    9.96    0.86
 -18   6   7    0.97    1.02
 -18   6   6    3.12    1.19
 -18   6   6    2.60    1.15
 -18   6   6    2.18    1.25
 -18   6   5   32.48    2.44
 -18   6   5   31.00    2.14
 -18   6   5   28.46    2.19
 -18   6   5   28.02    2.28
 -18   6   5   32.76    2.20
 -18   6   5   33.54    2.76
 -18   6   4   27.79    2.23
 -18   6   4   22.79    1.86
 -18   6   4   20.60    2.34
 -18   6   4   22.34    1.98
 -18   6   4   22.65    2.04
 -18   6   4   23.08    1.92
 -18   6   4   22.60    2.23
 -18   6   4   22.89    2.51
 -18   6   3   28.20    1.96
 -18   6   3   25.56    2.20
 -18   6   3   28.90    2.41
 -18   6   3   29.22    2.45
 -18   6   3   24.99    1.96
 -18   6   2    8.10    1.70
 -18   6   2   12.87    1.87
 -18   6   2   15.66    1.92
 -18   6   2   12.67    1.70
 -18   6   1    7.70    1.72
 -18   6   1    8.68    1.66
 -18  -6  -1   13.46    1.20
 -18   6   1   10.13    1.68
 -18   6   0   11.81    1.83
 -18  -6   0   19.03    1.44
 -18  -6   0   19.06    2.06
 -18   6   0   13.82    1.74
 -18  -6   1   12.30    1.99
 -18  -6   1   15.27    1.42
 -18   6  -2   10.50    1.60
 -18  -6   2   16.80    2.44
 -18  -6   3   32.62    2.50
 -18  -6   3   37.03    3.33
 -18  -6   4   27.06    2.14
 -18  -6   4   27.99    3.17
 -18  -6   4   25.95    2.33
  18   6   4   27.92    2.27
 -18  -6   5   35.36    2.67
 -18  -6   5   31.59    2.25
  18   6   5   34.43    2.42
 -18  -6   5   27.02    3.31
 -18  -6   6    3.26    1.61
 -18  -6   7   -0.28    1.16
 -18  -6   7    1.43    1.17
 -18  -6   8   10.23    1.01
 -18   7   8    1.72    0.57
 -18   7   7    1.52    0.96
 -18   7   6    0.99    1.14
 -18   7   6    2.50    1.04
 -18   7   5   11.85    2.06
 -18   7   5    9.41    1.38
 -18   7   5    8.88    1.52
 -18   7   5   10.87    1.42
 -18   7   5    8.82    1.32
 -18   7   4    3.60    1.65
 -18   7   4    2.04    1.62
 -18   7   4    4.39    1.97
 -18   7   4    3.94    1.19
 -18   7   4    3.60    1.55
 -18   7   4    5.58    1.31
 -18   7   4    5.00    1.44
 -18   7   4    3.31    1.27
 -18   7   3   86.84    4.66
 -18   7   3   98.09    4.91
 -18   7   3  100.42    5.10
 -18   7   3   85.03    4.64
 -18   7   3   97.73    5.13
 -18   7   3   90.96    4.84
 -18   7   2   15.66    1.97
 -18   7   2   15.56    1.98
 -18   7   2   14.59    1.76
 -18   7   2   15.96    1.90
 -18   7   1   19.67    1.88
 -18   7   1   16.63    1.90
 -18   7   1   15.53    1.90
 -18   7   1   13.83    1.54
 -18   7   0    2.98    1.37
 -18  -7   0    0.41    0.98
 -18  -7   0    0.47    1.56
 -18   7   0   -1.03    1.48
 -18   7   0    0.28    1.19
 -18  -7   1   15.19    2.19
 -18  -7   1   10.72    1.38
 -18  -7   2   18.01    2.60
 -18  -7   3   83.99    4.59
 -18  -7   3   84.32    5.47
 -18  -7   4    3.50    1.58
  18   7   4    4.93    1.64
 -18  -7   4    5.70    2.50
  18   7   5    8.06    1.62
 -18  -7   5    9.13    1.84
 -18  -7   6   -1.03    1.44
 -18  -7   7    1.72    1.03
 -18  -7   7    1.22    1.02
  18   7   8    2.45    0.70
 -18  -7   8    0.91    0.65
 -18   8   8    2.52    0.45
 -18   8   7   -0.20    0.83
 -18   8   6    0.95    1.06
 -18   8   5    2.14    1.19
 -18   8   5    5.17    1.09
 -18   8   5    2.32    1.75
 -18   8   4   11.59    1.59
 -18   8   4   14.68    1.71
 -18   8   4   13.44    1.30
 -18   8   4   14.84    1.45
 -18   8   4   12.95    2.07
 -18   8   4   11.08    1.88
 -18   8   3   17.40    1.71
 -18   8   3   18.02    1.82
 -18   8   3   18.08    2.01
 -18   8   3   20.66    2.15
 -18   8   2    0.70    1.63
 -18   8   2    1.13    1.09
 -18   8   2    0.52    1.41
 -18   8   2    1.52    1.77
 -18   8   2    1.14    1.45
 -18   8   1    5.10    1.52
 -18   8   1    1.36    1.55
 -18   8   1    2.29    1.21
 -18   8   1    3.87    1.69
 -18   8   0    1.13    1.29
 -18   8   0    0.33    1.34
 -18   8   0    2.89    1.47
 -18  -8   0    1.86    0.94
 -18  -8   0    2.83    1.69
 -18   8  -1    2.39    1.44
 -18  -8   1    3.12    1.13
 -18  -8   1    2.66    1.88
 -18   8  -2    0.62    1.35
 -18  -8   2    3.67    2.17
 -18   8  -3   17.41    1.78
 -18  -8   3   23.18    2.99
 -18   8  -3   20.61    1.94
  18   8   4   15.99    1.91
 -18  -8   4   12.88    2.73
  18   8   5    4.27    1.50
 -18  -8   5    1.83    1.62
 -18  -8   6    0.48    1.37
 -18  -8   6    1.36    1.30
 -18  -8   7    0.62    0.84
  18   8   8    4.11    0.63
 -18   9   6    4.52    1.03
 -18   9   5    4.54    1.71
 -18   9   5    6.45    1.18
 -18   9   4   68.82    3.88
 -18   9   4   72.27    3.77
 -18   9   4   74.56    4.18
 -18   9   4   73.01    4.26
 -18   9   3   17.97    1.61
 -18   9   3   15.56    1.64
 -18   9   3   17.40    1.87
 -18   9   3   20.00    2.09
 -18   9   2    4.02    1.86
 -18   9   2    1.88    1.51
 -18   9   2    3.00    1.06
 -18   9   2    2.85    1.21
 -18   9   2    1.95    1.36
 -18   9   2    0.54    1.60
 -18   9   2    2.39    1.19
 -18   9   1    8.97    1.43
 -18   9   1   10.05    1.66
 -18   9   1    6.62    1.39
 -18   9   1   12.61    1.94
 -18   9   0    0.26    1.36
 -18  -9   0    1.82    1.75
 -18   9   0    0.62    1.31
 -18   9   0    3.11    1.55
 -18  -9   1    8.63    1.26
 -18   9  -1   12.84    1.74
 -18  -9   1   11.19    2.24
 -18   9  -2    0.38    1.42
 -18  -9   2    1.78    2.18
  18   9   3   20.25    1.77
 -18   9  -3   18.39    1.82
 -18  -9   3   16.57    2.88
 -18   9  -4   63.29    3.60
  18   9   4   64.00    3.84
 -18  -9   4   72.18    4.88
  18   9   5    6.32    1.54
 -18  -9   5    6.55    1.52
 -18  -9   6    2.87    1.25
 -18  -9   6    0.91    1.10
  18   9   7    0.98    0.95
 -18  10   4   11.69    1.92
 -18  10   4    9.14    1.69
 -18  10   3   38.51    2.50
 -18  10   3   43.47    2.76
 -18  10   3   48.80    3.09
 -18  10   3   46.28    2.57
 -18  10   2    6.77    1.81
 -18  10   2    5.53    1.31
 -18  10   2    7.94    1.46
 -18  10   2    8.42    2.06
 -18  10   2    2.66    1.55
 -18  10   1    3.50    1.36
 -18  10   1    5.56    1.53
 -18  10   1    6.82    1.32
 -18  10   1    2.42    1.92
 -18  10   0    2.56    1.46
 -18  10   0    4.03    1.67
 -18 -10   0    6.38    1.90
 -18  10   0    4.54    1.50
 -18  10  -1    4.31    1.60
 -18 -10   1    5.63    1.13
 -18 -10   1    6.24    2.14
 -18 -10   2    7.85    2.40
 -18  10  -2    5.74    1.60
  18  10   2    8.73    1.42
 -18 -10   3   64.50    4.40
  18  10   3   66.56    3.21
  18  10   4   12.44    1.59
  18  10   4    9.64    1.77
 -18  10  -4    7.55    1.50
  18  10   5    9.79    1.45
  18  10   5    7.20    1.51
 -18  10  -5    6.64    1.26
  18  10   6   -0.30    1.14
 -18 -10   6    1.40    1.02
  18  10   7    1.32    0.84
 -18  11   4   27.01    2.25
 -18  11   4   30.62    2.35
 -18  11   3   51.93    3.34
 -18  11   2   -1.68    1.75
 -18  11   2    0.28    1.20
 -18  11   2    1.60    1.37
 -18  11   2    0.04    1.93
 -18  11   2    0.29    1.18
 -18  11   1    5.25    1.46
 -18  11   1    6.89    1.57
 -18  11   1   10.38    2.07
 -18  11   1    6.31    1.30
 -18  11   0    8.72    1.66
 -18  11   0    8.80    1.63
 -18  11   0    8.67    1.91
  18  11   1    5.60    1.67
 -18 -11   1    7.96    2.19
 -18  11  -1    7.09    1.80
 -18  11  -1    7.40    1.67
  18  11   2    1.50    1.62
 -18 -11   2    1.93    2.27
  18  11   2   -0.17    1.32
 -18  11  -2    0.42    1.53
  18  11   3   44.24    2.61
  18  11   3   38.63    2.88
 -18  11  -3   40.98    2.77
  18  11   4   28.56    2.03
  18  11   4   26.24    2.27
 -18  11  -4   26.47    2.09
  18  11   5    1.46    1.25
 -18  11  -5   -0.02    1.20
  18  11   5    0.58    1.32
  18  11   6    1.97    1.08
  18  11   7    0.93    0.72
 -18  12   3   16.66    1.97
 -18  12   2    4.71    1.80
 -18  12   2    7.31    1.39
 -18  12   2    5.50    1.44
 -18  12   2    6.16    2.03
 -18  12   1    1.26    1.96
 -18  12   1    2.08    1.41
 -18  12   1    2.52    1.41
 -18  12   1    0.99    1.07
  18  12  -1    0.86    1.33
 -18  12   0   28.03    2.32
  18  12   0   26.07    2.17
 -18  12   0   29.55    2.50
 -18  12   0   28.08    2.29
 -18  12  -1    1.65    1.68
 -18 -12   1   -0.66    1.98
  18  12   1    2.74    1.57
 -18  12  -1    2.26    1.56
 -18  12  -2    7.33    1.71
 -18 -12   2    8.08    1.19
  18  12   2    8.57    1.76
  18  12   2   10.31    1.52
 -18  12  -3   18.84    1.94
  18  12   3   17.71    2.00
  18  12   3   20.52    1.79
 -18  12  -4    9.62    1.54
  18  12   4   12.57    1.56
 -18  12  -5    2.49    1.17
  18  12   5    5.42    1.26
  18  12   5    3.10    1.25
  18  12   6    2.63    0.99
 -18  13   3    5.99    1.61
 -18  13   2    8.00    2.05
 -18  13   2    5.32    1.72
 -18  13   2    4.74    1.29
 -18  13   1   -0.43    1.33
 -18  13   1    2.86    1.35
 -18  13   1    1.36    1.85
  18  13  -1    3.42    1.32
 -18  13   0    2.91    1.47
 -18  13   0    3.03    1.46
  18  13   0    1.68    1.40
 -18  13  -1    4.78    1.74
  18  13   1    0.93    1.49
 -18  13  -1    1.82    1.49
 -18  13  -2    5.53    1.66
  18  13   2    3.60    1.57
  18  13   2    7.38    1.48
 -18  13  -3    4.36    1.49
  18  13   3    3.79    1.56
  18  13   3    4.63    1.43
 -18  13  -4    1.48    1.29
  18  13   4    2.48    1.30
 -18  13  -5    4.42    1.12
  18  13   5    4.73    1.19
  18  13   6    1.41    0.83
 -18  14   3    3.79    1.36
 -18  14   2    2.09    1.86
 -18  14   2    2.75    1.58
 -18  14   2    1.45    1.20
 -18  14   1    7.24    1.47
 -18  14   1    6.83    1.33
 -18  14   0   11.73    1.66
 -18  14   0    7.79    1.47
 -18  14   0   10.17    1.94
  18  14   0   11.00    1.51
 -18  14  -1    6.29    1.58
 -18  14  -1    9.24    1.78
  18  14   1    8.98    1.54
 -18  14  -1    6.72    1.47
  18  14   2    1.99    1.42
 -18  14  -2    1.80    1.50
 -18  14  -3    1.62    1.38
  18  14   3    2.35    1.38
  18  14   3    3.48    1.38
 -18  14  -4    2.08    1.23
 -18 -14   4    3.32    0.98
  18  14   4    2.85    1.24
 -18  14  -5    0.77    0.92
  18  14   5    2.53    1.03
 -18  14  -6    1.44    0.57
 -18  15   2    2.43    1.45
 -18  15   2    1.02    1.12
 -18  15   2    1.43    1.72
 -18  15   1   -0.89    1.52
 -18  15   1    1.90    1.25
 -18  15   1    2.84    1.77
 -18  15   0    1.17    1.62
  18  15   0    0.74    1.16
 -18  15   0    2.34    1.17
 -18  15  -1    4.22    1.63
  18  15   1   -0.11    1.26
 -18  15  -1    2.70    1.25
  18  15   2    1.67    1.27
 -18  15  -2    2.61    1.43
 -18  15  -3    0.52    1.25
  18  15   3    2.96    1.24
 -18  15  -3    2.16    1.31
  18  15   4    1.11    1.08
 -18  15  -4    0.68    1.12
  18  15   5    2.21    0.76
 -18  15  -5    1.86    0.77
 -18  16   2    2.14    1.25
 -18  16   1    2.87    1.60
 -18  16   1    0.07    1.40
 -18  16   1    1.34    1.13
 -18  16   0   10.80    1.73
 -18  16   0   10.27    1.65
  18  16   0    6.70    1.15
  18  16   1    2.74    1.11
 -18  16  -1    3.73    1.10
 -18  16  -2    0.50    1.08
  18  16   2    1.32    1.15
 -18  16  -3    4.53    1.11
  18  16   3    7.25    1.18
 -18  16  -3    6.94    1.20
 -18  16  -4    2.85    0.93
  18  16   5    0.88    0.53
 -18  16  -5    1.34    0.58
 -18  17   2    2.62    1.04
 -18  17   1    6.64    1.46
 -18  17   1    1.78    1.25
 -18  17   0    8.07    1.55
 -18  17  -1    4.65    1.38
  18  17   1    3.12    0.96
 -18  17  -1    3.04    1.27
 -18  17  -2    2.35    1.23
 -18  17  -2    0.76    1.15
  18  17   2    1.52    0.95
 -18  17  -3    2.52    0.90
 -18  17  -3    1.25    1.07
 -18  17  -3    1.54    0.88
 -18  17  -4    0.48    0.71
  18  17   4    0.83    0.64
 -18  17  -4    1.69    0.68
 -18  18   1    4.18    1.07
 -18  18   0    2.94    1.21
 -18  18  -1    0.90    1.05
 -18  18  -1    3.79    1.19
 -18  18  -2    5.38    0.99
 -18  18  -2    4.10    1.10
  18  18   2    4.40    0.72
 -18  18  -3    1.11    0.82
  18  18   3    1.73    0.58
 -18  19   1    3.99    0.76
 -18  19  -1    2.80    0.92
 -18  19  -1    4.35    0.88
 -18  19  -2    6.49    0.82
 -18  19  -2    7.92    0.76
 -19   0   0   -0.19    1.15
 -19   0   0   -0.59    1.49
 -19   0   0   -1.27    1.74
 -19   0   1    8.73    1.30
 -19   0   1    4.28    1.77
 -19   0   1    3.87    1.38
 -19   0   1    2.45    1.75
 -19   0  -2    5.33    1.45
 -19   0   2    3.76    1.75
 -19   0   2    5.05    1.51
 -19   0   3    0.36    1.75
 -19   0   3   -0.98    1.64
 -19   0   3    1.86    1.21
 -19   0   4    0.74    1.85
 -19   0   4    0.92    2.05
 -19   0   4   -0.05    1.18
 -19   0   5    1.29    1.91
 -19   0   5   -0.04    1.62
 -19   0   5    1.24    1.18
 -19   0   6    1.77    1.53
 -19   0   6    0.88    1.49
 -19   0   6    1.18    1.07
 -19   0   7    2.18    1.24
 -19   0   8    1.10    0.91
 -19   0   8    0.15    0.82
 -19   1   8    2.28    0.89
 -19   1   8    3.71    0.86
 -19   1   7    5.17    1.26
 -19   1   6   17.54    1.47
 -19   1   6   16.83    2.00
 -19   1   6   18.28    1.91
 -19   1   5    3.84    1.62
 -19   1   5    7.30    1.85
 -19   1   5    3.00    1.16
 -19   1   4    3.03    1.23
 -19   1   3    3.51    1.18
 -19   1   3    4.86    1.81
 -19   1   3    6.02    1.80
 -19   1   2   10.73    1.68
 -19   1   2   13.89    1.96
 -19   1   1    0.50    1.14
 -19   1   1   -1.18    1.48
 -19   1   1   -0.65    1.68
 -19   1   1    3.91    1.25
 -19  -1   0   -0.53    1.10
 -19   1   0    0.50    1.16
 -19   1   0    1.89    1.42
 -19   1   0   -0.04    1.69
 -19  -1   1    2.62    1.16
 -19  -1   1    3.97    1.34
 -19  -1   1    3.92    1.70
 -19   1  -1    3.46    1.49
 -19  -1   2    9.20    1.39
 -19   1  -2   11.11    1.59
 -19  -1   2   14.52    2.03
 -19  -1   2   11.17    1.71
 -19  -1   2    7.78    2.00
 -19  -1   3    4.17    1.95
 -19  -1   3    2.94    1.77
 -19  -1   4    3.02    1.23
 -19  -1   4    2.90    1.93
 -19  -1   5    5.73    1.70
 -19  -1   5    5.11    1.30
 -19  -1   5    5.69    2.05
 -19  -1   6   19.52    1.59
 -19  -1   6   22.39    2.17
 -19  -1   6   15.05    1.88
 -19  -1   6   20.33    2.03
 -19  -1   7    5.39    1.32
 -19  -1   7    3.98    1.42
 -19  -1   7    2.22    1.43
 -19  -1   8    2.48    0.86
 -19  -1   8    2.51    0.95
 -19   2   7    2.57    1.26
 -19   2   6    3.66    1.44
 -19   2   6    5.34    1.53
 -19   2   6    4.35    1.52
 -19   2   6    5.17    1.62
 -19   2   5    3.90    1.61
 -19   2   5    2.21    1.13
 -19   2   5    4.08    1.75
 -19   2   4    5.88    1.27
  19  -2   4    6.24    2.74
 -19   2   3    1.16    1.18
 -19   2   3   -0.44    1.85
 -19   2   2   17.14    1.84
 -19   2   2   17.26    1.55
 -19   2   1   15.86    2.07
 -19   2   1   13.87    1.56
 -19   2   0    0.65    1.31
 -19  -2   0    0.80    1.35
 -19  -2   0   -0.57    1.06
 -19   2   0    3.82    1.81
 -19  -2   1   14.53    1.99
 -19   2  -1   14.15    1.70
 -19  -2   1   16.44    1.47
 -19   2  -1   13.09    1.83
 -19  -2   1   10.68    1.60
 -19  -2   2   15.24    1.95
 -19  -2   2   24.92    2.51
 -19   2  -2   16.29    1.86
 -19  -2   2   28.33    1.80
 -19  -2   2   19.33    2.23
 -19  -2   3    1.49    2.01
 -19  -2   3    0.42    1.69
 -19  -2   3    4.52    1.94
 -19  -2   4    8.50    2.02
 -19  -2   5    5.21    1.99
 -19  -2   5    3.69    1.62
 -19  -2   6    3.47    1.62
 -19  -2   6    4.48    1.79
 -19  -2   6    4.19    1.49
 -19  -2   6    5.37    1.21
 -19  -2   7    2.47    1.42
 -19  -2   7    2.63    1.29
 -19  -2   8    3.30    0.86
 -19  -2   8    3.71    0.95
 -19   3   7    3.87    1.18
 -19   3   7    2.97    1.11
 -19   3   6    2.09    1.32
 -19   3   6    2.23    1.45
 -19   3   6    2.82    1.45
 -19   3   6    0.80    1.44
 -19   3   5    0.80    2.03
 -19   3   5    1.95    1.06
  19  -3   5   -1.65    2.86
 -19   3   5    4.59    1.84
 -19   3   5    2.93    1.61
 -19   3   5    5.25    1.51
 -19   3   4    1.22    1.86
 -19   3   4    2.90    1.12
  19  -3   4    0.18    2.76
 -19   3   4    4.46    1.83
 -19   3   3    6.57    1.26
 -19   3   3    6.69    1.89
 -19   3   3    9.54    1.96
 -19   3   3    4.61    1.86
 -19   3   2   22.42    1.77
 -19   3   1   23.41    1.91
 -19   3   1   22.51    2.26
 -19   3   1   22.23    2.05
 -19   3   1   25.60    1.84
 -19   3   0    3.51    1.42
 -19  -3   0    2.15    1.39
 -19  -3   0    1.88    1.11
 -19   3   0    2.31    1.72
 -19  -3   1   22.26    2.33
 -19   3  -1   27.73    2.05
 -19   3  -1   25.92    2.17
 -19  -3   1   22.73    1.96
 -19  -3   1   28.03    2.19
 -19  -3   2   24.76    2.02
 -19  -3   2   17.75    1.67
 -19  -3   2   22.41    2.24
 -19  -3   3    5.63    2.13
 -19  -3   3    9.32    1.87
 -19  -3   3    7.60    1.84
 -19  -3   4    3.18    1.88
 -19  -3   4    3.03    2.17
 -19  -3   5   -0.04    1.88
 -19  -3   5    4.13    1.61
  19   3   5    0.97    1.30
 -19  -3   6   -1.16    1.72
 -19  -3   6    1.69    1.37
 -19  -3   6    1.02    1.17
 -19  -3   7    3.77    1.31
 -19  -3   7    2.96    1.38
 -19  -3   7    2.67    0.97
 -19  -3   8    2.02    0.79
 -19  -3   8    2.93    0.92
 -19   4   7    2.33    1.03
 -19   4   7    3.69    1.13
 -19   4   6    0.85    1.24
 -19   4   6    2.61    1.33
 -19   4   6    2.98    1.39
 -19   4   5    1.18    2.06
 -19   4   5    5.69    1.80
 -19   4   5    2.64    1.53
 -19   4   5    2.29    1.40
 -19   4   5    2.41    1.03
 -19   4   5    2.98    1.51
  19  -4   5    2.35    2.92
 -19   4   4    3.00    1.69
 -19   4   4    1.51    1.12
 -19   4   4    1.44    1.49
 -19   4   4    0.16    1.88
 -19   4   4    1.22    1.90
 -19   4   3   13.53    1.46
 -19   4   3    9.47    1.97
 -19   4   3    9.44    1.98
 -19   4   2    4.42    1.51
 -19   4   2    3.89    1.57
 -19   4   2    5.41    1.30
 -19   4   1   25.70    2.42
 -19   4   1   17.74    2.13
 -19   4   0    3.58    1.66
 -19   4   0    4.56    1.39
 -19  -4   0    2.90    1.47
 -19  -4   0    3.43    1.10
 -19   4  -1   22.84    2.27
 -19  -4   1   24.35    2.20
 -19  -4   1   23.51    2.09
 -19   4  -1   20.71    2.04
 -19  -4   1   37.06    2.01
 -19  -4   1   33.24    2.64
 -19   4  -2    8.29    1.52
 -19  -4   2    6.64    1.99
 -19  -4   2    4.66    1.59
 -19  -4   3   13.90    1.99
 -19  -4   3   14.49    2.49
 -19  -4   4    0.25    1.77
 -19  -4   4    2.57    2.22
  19   4   5    2.89    1.43
 -19  -4   5    5.90    1.93
 -19  -4   5    2.79    1.52
 -19  -4   6    1.01    1.70
 -19  -4   6    1.00    1.29
 -19  -4   7    4.92    1.03
 -19  -4   7    3.24    1.35
 -19  -4   7    2.34    1.26
 -19  -4   8    4.37    0.92
 -19  -4   8    3.79    0.75
 -19   5   8    2.82    0.68
 -19   5   7    2.53    1.01
 -19   5   7    1.14    0.90
 -19   5   6    3.64    1.30
 -19   5   6    5.60    1.32
 -19   5   6    5.04    1.19
 -19   5   5    1.51    1.41
 -19   5   5    4.54    1.45
 -19   5   5    0.81    1.70
 -19   5   5    3.78    1.32
 -19   5   5    1.41    1.42
 -19   5   5    0.94    2.00
 -19   5   4    9.07    2.14
 -19   5   4    6.92    1.94
 -19   5   4    6.23    1.21
 -19   5   4    5.98    1.54
 -19   5   4    6.17    1.57
 -19   5   4    5.46    1.57
 -19   5   4    6.22    1.81
 -19   5   4    7.31    1.47
 -19   5   3   47.75    2.83
 -19   5   3   45.14    2.99
 -19   5   3   34.77    2.51
 -19   5   3   37.62    2.90
 -19   5   2   33.21    2.47
 -19   5   2   29.93    2.50
 -19   5   1   18.42    1.97
 -19  -5  -1    9.01    1.24
 -19   5   0   43.46    3.02
 -19  -5   0   41.06    2.56
 -19  -5   0   44.89    3.09
 -19   5   0   50.67    2.92
 -19   5  -1   15.10    1.84
 -19  -5   1   14.05    1.50
 -19  -5   1   14.70    2.17
 -19   5  -2   25.48    2.14
 -19  -5   2   30.99    2.32
 -19  -5   2   27.51    2.83
 -19  -5   3   38.36    2.73
 -19  -5   3   32.91    3.35
 -19  -5   4    9.13    1.87
 -19  -5   4    7.07    2.43
  19   5   5    3.33    1.44
 -19  -5   5    2.15    1.40
 -19  -5   6    4.16    1.69
 -19  -5   7    0.46    1.16
 -19  -5   7    2.00    0.99
 -19  -5   7    1.44    1.23
 -19  -5   8    1.29    0.80
 -19  -5   8    2.33    0.60
 -19   6   8    6.73    0.68
 -19   6   7    1.58    0.94
 -19   6   6    8.88    1.28
 -19   6   6    9.83    1.23
 -19   6   6   10.24    1.32
 -19   6   5   34.82    2.76
 -19   6   5   28.36    2.18
 -19   6   5   34.88    2.35
 -19   6   5   30.83    2.41
 -19   6   5   29.40    2.10
 -19   6   5   31.51    2.17
 -19   6   4   12.73    2.02
 -19   6   4   11.22    1.93
 -19   6   4   14.29    2.23
 -19   6   4   14.22    1.73
 -19   6   4   11.39    1.66
 -19   6   4   13.19    1.90
 -19   6   4   14.15    1.52
 -19   6   4   12.35    1.57
 -19   6   3   33.19    2.63
 -19   6   3   27.40    2.50
 -19   6   3   28.39    2.04
 -19   6   3   27.63    2.32
 -19   6   3   29.78    2.01
 -19   6   2   32.18    2.50
 -19   6   2   28.40    2.61
 -19   6   1    4.64    1.55
 -19  -6  -1    3.87    1.05
 -19   6   1    2.37    1.63
 -19   6   0    4.91    1.53
 -19  -6   0    7.80    1.17
 -19  -6   0    8.61    1.77
 -19   6   0    6.34    1.72
 -19  -6   1    4.43    1.25
 -19   6  -1    2.55    1.55
 -19  -6   1    6.10    1.89
 -19  -6   2   37.22    3.29
 -19   6  -2   34.87    2.56
 -19  -6   3   35.47    2.68
 -19  -6   3   40.74    3.57
 -19  -6   4   12.89    1.67
 -19  -6   4   11.01    2.61
  19   6   4   13.23    1.82
 -19  -6   4   14.28    1.92
  19   6   5   30.14    2.29
 -19  -6   5   34.86    2.62
 -19  -6   5   27.42    2.13
 -19  -6   6   11.01    1.70
 -19  -6   7    3.07    0.97
 -19  -6   7    2.96    1.11
 -19  -6   7    2.14    1.13
 -19  -6   8    7.90    0.82
  19   6   8    8.87    0.83
 -19   7   8    3.23    0.47
 -19   7   7    0.56    0.86
 -19   7   6    4.58    1.14
 -19   7   6    4.55    1.03
 -19   7   5   21.12    1.85
 -19   7   5   22.79    1.69
 -19   7   5   20.13    1.74
 -19   7   5   24.76    2.37
 -19   7   4    7.22    1.23
 -19   7   4    7.46    1.62
 -19   7   4    6.18    1.29
 -19   7   4    7.40    1.32
 -19   7   4    6.34    1.44
 -19   7   4    9.47    2.08
 -19   7   4    4.11    1.70
 -19   7   3  158.40    7.97
 -19   7   3  156.84    7.80
 -19   7   3  165.70    8.02
 -19   7   3  173.29    8.20
 -19   7   3  148.23    7.76
 -19   7   3  166.73    8.23
 -19   7   2   25.36    2.26
 -19   7   2   26.64    2.36
 -19   7   2   24.28    2.20
 -19   7   2   26.17    2.39
 -19   7   1    3.87    1.61
 -19   7   1    5.93    1.59
 -19   7   1    7.77    1.47
 -19   7   1    4.26    1.61
 -19  -7   0    5.24    1.76
 -19   7   0    8.48    1.55
 -19  -7   0    7.06    1.10
 -19   7   0    4.73    1.62
 -19  -7   1    3.47    1.22
 -19   7  -1    3.33    1.58
 -19  -7   1    2.53    1.90
 -19   7  -2   21.09    2.06
 -19  -7   2   22.03    1.96
 -19  -7   3  146.40    7.50
 -19  -7   3  149.77    8.40
 -19  -7   4    7.93    1.39
 -19  -7   4    6.63    2.49
  19   7   4    5.50    1.65
 -19  -7   4    7.41    1.66
  19   7   5   15.97    1.80
 -19  -7   5   15.81    2.00
 -19  -7   6    5.95    1.47
 -19  -7   7    2.08    0.90
 -19  -7   7    1.78    0.95
 -19  -7   7    1.74    0.97
  19   7   8    3.86    0.59
 -19   8   6    0.28    1.02
 -19   8   5   26.94    2.39
 -19   8   5   26.60    1.88
 -19   8   4   54.48    3.25
 -19   8   4   52.95    3.26
 -19   8   4   51.66    3.00
 -19   8   4   59.29    3.66
 -19   8   4   55.65    3.51
 -19   8   4   61.71    3.08
 -19   8   3   25.11    2.02
 -19   8   3   24.01    2.10
 -19   8   3   29.04    2.33
 -19   8   2    1.06    1.58
 -19   8   2    3.42    1.73
 -19   8   2    1.47    1.49
 -19   8   2    1.23    1.74
 -19   8   1    6.42    1.58
 -19   8   1    6.18    1.44
 -19   8   1    5.56    1.74
 -19   8   1    5.54    1.74
 -19   8   1    7.08    1.38
 -19   8   0   -1.07    1.62
 -19  -8   0    1.98    0.98
 -19  -8   1    8.87    2.17
 -19  -8   1   10.59    1.34
 -19   8  -1    8.75    1.55
 -19   8  -2   -0.12    1.51
 -19  -8   2    2.27    2.08
 -19  -8   3   37.82    3.52
 -19   8  -3   28.26    2.29
 -19  -8   4   61.01    4.56
  19   8   4   59.44    3.63
 -19  -8   5   31.06    2.37
  19   8   5   28.03    2.23
 -19  -8   6    1.83    1.26
 -19  -8   6    3.15    1.36
 -19  -8   7    0.88    0.77
  19   8   7    1.41    0.94
 -19  -8   7    2.75    0.82
 -19   9   5   27.27    2.30
 -19   9   4   84.87    4.57
 -19   9   4   85.09    4.62
 -19   9   4   74.40    4.23
 -19   9   3   12.21    1.49
 -19   9   3   15.28    1.57
 -19   9   3   15.41    1.82
 -19   9   3   17.67    2.06
 -19   9   2    9.58    2.02
 -19   9   2    6.74    1.67
 -19   9   2    7.78    1.19
 -19   9   2    5.66    1.27
 -19   9   2    6.12    1.51
 -19   9   2    7.14    1.76
 -19   9   1    2.64    1.29
 -19   9   1    3.11    1.36
 -19   9   1    5.39    1.85
 -19   9   1    4.76    1.57
 -19   9   0    0.62    1.67
 -19   9   0    4.51    1.43
 -19   9   0    4.15    1.51
 -19   9   0    6.15    1.70
 -19   9  -1    2.92    1.58
 -19  -9   1    4.78    2.05
 -19  -9   1    3.48    1.12
 -19  -9   2    7.86    2.33
 -19   9  -2    9.38    1.63
 -19   9  -3   12.45    1.75
 -19  -9   3   13.58    2.70
  19   9   3   16.59    1.63
 -19   9  -3   15.72    1.68
  19   9   4   72.20    4.15
 -19  -9   5   21.60    1.91
  19   9   5   20.95    1.92
 -19  -9   6    1.98    1.05
  19   9   6    4.20    1.17
 -19  -9   6    3.81    1.21
  19   9   7    4.85    0.90
 -19  10   4   16.99    2.03
 -19  10   4   15.30    1.85
 -19  10   3   10.74    1.59
 -19  10   3   12.94    1.95
 -19  10   2    4.18    1.81
 -19  10   2    6.13    1.28
 -19  10   2    5.82    1.44
 -19  10   2    3.92    1.94
 -19  10   2    4.02    1.54
 -19  10   1    1.61    1.31
 -19  10   1    1.35    1.28
 -19  10   1    4.52    1.92
 -19  10   1    2.42    1.53
 -19  10   0    4.57    1.51
 -19  10   0    5.58    1.58
 -19  10   0    7.79    1.84
 -19  10  -1    3.28    1.63
 -19 -10   1    2.79    2.05
 -19 -10   1    2.29    1.04
 -19 -10   2    3.12    2.17
 -19  10  -2    5.95    1.60
  19  10   3   14.63    1.57
 -19  10  -3   12.72    1.69
 -19 -10   3   15.48    2.74
  19  10   4   20.40    1.73
  19  10   4   16.54    1.95
 -19  10  -4   15.08    1.70
  19  10   5    2.02    1.29
 -19 -10   5    3.55    1.22
  19  10   5    2.14    1.34
 -19 -10   6    1.46    0.96
  19  10   6    2.76    1.08
  19  10   7    5.55    0.82
 -19  11   4    2.64    1.46
 -19  11   4    6.00    1.63
 -19  11   3   10.87    1.84
 -19  11   2    4.56    1.31
 -19  11   2    6.15    1.77
 -19  11   2    5.87    1.31
 -19  11   2    6.18    1.60
 -19  11   2    6.17    2.05
 -19  11   1    5.94    1.35
 -19  11   1    6.18    2.04
 -19  11   1    6.06    1.46
 -19  11   1    6.52    1.58
 -19  11   0   36.72    2.71
 -19  11   0   34.11    2.59
 -19  11   0   33.22    2.52
 -19  11  -1    7.26    1.78
 -19 -11   1    6.12    2.14
  19  11   1    5.94    1.67
 -19  11  -2    7.29    1.70
 -19 -11   2    6.79    1.23
  19  11   2    7.13    1.75
  19  11   2    7.75    1.40
 -19 -11   2    6.22    2.22
  19  11   3    8.63    1.49
 -19  11  -3    7.67    1.63
  19  11   3    8.62    1.74
 -19  11  -3    9.45    1.62
  19  11   4    4.03    1.37
  19  11   4    2.73    1.50
 -19  11  -4    3.89    1.32
  19  11   5    5.01    1.25
  19  11   5    1.77    1.26
 -19  11  -5    4.52    1.14
  19  11   6    2.57    1.02
 -19 -11   6    2.78    0.87
  19  11   7    1.56    0.59
 -19  12   3   10.89    1.78
 -19  12   2    3.03    1.72
 -19  12   2    3.13    1.25
 -19  12   2    1.79    1.97
  19  12  -1    2.75    1.35
 -19  12   1    1.04    1.36
 -19  12   1    1.16    1.87
 -19  12   1    1.99    1.43
 -19  12   1    2.83    1.14
 -19  12   0   19.78    1.95
 -19  12   0   19.76    2.02
 -19  12   0   15.72    1.60
  19  12   0   17.50    1.87
 -19  12   0   21.22    2.26
 -19  12  -1    2.77    1.76
  19  12   1    0.77    1.53
 -19  12  -2    3.21    1.59
 -19 -12   2    2.91    1.06
  19  12   2    1.26    1.58
  19  12   2    4.12    1.37
 -19  12  -3   10.16    1.63
 -19  12  -3    6.52    1.61
  19  12   3   10.85    1.77
  19  12   3   10.93    1.48
 -19  12  -4    1.30    1.28
  19  12   4    3.36    1.29
 -19  12  -5    1.76    1.03
  19  12   5    1.09    1.14
  19  12   5    0.52    1.12
  19  12   6    0.55    0.88
 -19  13   3    4.23    1.55
 -19  13   3    2.48    1.48
 -19  13   2    3.00    1.66
 -19  13   2    4.71    1.25
 -19  13   2    3.16    1.90
 -19  13   1    7.95    2.02
 -19  13   1    4.57    1.42
 -19  13   1    6.88    1.46
  19  13  -1    5.85    1.35
 -19  13   0   -0.62    1.81
 -19  13   0    4.85    1.46
 -19  13   0    2.22    1.45
  19  13   0    2.51    1.41
 -19  13  -1    8.85    1.78
  19  13   1    7.01    1.57
 -19  13  -1    6.01    1.58
 -19  13  -2    3.31    1.57
  19  13   2    3.82    1.51
 -19  13  -3    4.23    1.43
 -19  13  -3    0.73    1.43
 -19 -13   3    2.95    1.04
  19  13   3    1.82    1.42
  19  13   3    4.64    1.37
 -19  13  -4    4.17    1.28
 -19 -13   4    5.79    1.08
  19  13   4    3.23    1.29
 -19  13  -5    1.58    0.93
 -19 -13   5    2.02    0.89
  19  13   5    0.81    1.02
  19  13   5   -0.20    1.04
 -19  13  -6    3.16    0.74
  19  13   6    5.35    0.79
 -19  14   3    3.72    1.36
 -19  14   2    1.82    1.53
 -19  14   2    2.29    1.82
 -19  14   1    3.71    1.29
 -19  14   1    3.73    1.74
 -19  14   0    2.02    1.29
 -19  14   0   -1.00    1.62
 -19  14   0    2.32    1.39
 -19  14   0    0.41    1.73
  19  14   0    0.70    1.28
 -19  14  -1    5.03    1.41
 -19  14  -1    7.46    1.72
  19  14   1    4.75    1.43
 -19  14  -2    1.58    1.44
  19  14   2    1.55    1.37
 -19  14  -3    1.77    1.32
 -19  14  -3    4.05    1.37
  19  14   3    2.52    1.32
 -19  14  -4    7.21    1.23
 -19  14  -5    3.50    0.80
 -19  15   2    1.71    1.42
 -19  15   1   -0.43    1.48
 -19  15   1    3.41    1.25
 -19  15   1    2.75    1.71
 -19  15   0    1.38    1.15
 -19  15   0   -0.36    1.58
  19  15   0    2.28    1.13
 -19  15   0    0.71    1.55
 -19  15  -1    3.11    1.26
 -19  15  -1    1.03    1.52
  19  15   1    2.88    1.23
 -19  15  -1    2.64    1.48
 -19  15  -2    2.41    1.23
 -19  15  -2    0.61    1.37
 -19  15  -2    3.73    1.39
  19  15   2    2.08    1.27
 -19  15  -3    6.67    1.30
  19  15   3    6.99    1.30
 -19  15  -3    9.08    1.35
  19  15   4    1.51    1.01
 -19  15  -4    4.18    1.05
  19  15   5    0.49    0.65
 -19  15  -5    0.74    0.70
 -19  16   2    5.41    1.27
 -19  16   1    3.85    1.53
 -19  16   1    3.72    1.39
 -19  16   0   -0.58    1.39
 -19  16   0    2.32    1.51
  19  16   0    2.42    0.98
 -19  16  -1    0.99    1.39
  19  16   1    2.90    1.08
 -19  16  -1    3.77    1.49
 -19  16  -2    5.15    1.13
 -19  16  -2    4.93    1.28
  19  16   2    3.03    1.11
 -19  16  -2    5.17    1.35
 -19  16  -3    5.40    1.07
 -19  16  -3    6.37    1.10
 -19  16  -3    9.04    1.21
  19  16   3    6.63    1.12
 -19  16  -4    1.85    0.81
 -19  17   1    1.04    1.31
 -19  17   1    2.24    1.16
 -19  17   0    2.42    1.34
 -19  17   0    1.75    1.25
 -19  17  -1    1.20    1.27
 -19  17  -1   -1.21    1.19
 -19  17  -2    1.17    1.13
 -19  17  -2    1.47    1.02
 -19  17  -3    2.34    0.76
 -19  17  -3    1.39    0.80
 -19  17  -3    0.91    0.93
 -19  17  -4    1.21    0.53
  19  17   4    0.44    0.51
 -19  18   1   11.97    1.21
 -19  18   0    1.67    1.10
 -19  18  -1    9.61    1.27
 -19  18  -1   12.89    1.26
  19  18   2    1.71    0.57
 -19  18  -2    2.10    0.92
 -19  18  -2    2.55    0.83
 -19  19   1    2.30    0.61
 -19  19  -1    3.28    0.72
 -19  19  -1    0.95    0.71
 -20   0   0   -0.50    1.77
 -20   0   0   -0.39    1.58
 -20   0   0    0.29    1.15
 -20   0  -1   46.30    3.23
 -20   0   1   44.82    3.11
 -20   0   1   43.91    3.34
 -20   0  -2   36.10    2.49
 -20   0   2   32.76    2.50
 -20   0   2   27.66    2.69
 -20   0   3    7.16    1.37
 -20   0   3    4.36    1.82
 -20   0   3    6.19    2.10
 -20   0   4    2.52    1.25
 -20   0   4    3.10    1.96
 -20   0   4    1.09    2.11
 -20   0   5   45.08    2.67
 -20   0   5   41.97    2.99
 -20   0   5   44.21    3.24
 -20   0   6   16.34    1.48
 -20   0   6   19.81    1.91
 -20   0   7    6.48    1.26
 -20   0   8    2.88    0.78
 -20   0   8    4.13    0.82
 -20   1   6    6.42    1.53
 -20   1   6    4.29    1.63
 -20   1   5    2.07    1.77
 -20   1   5    2.93    1.20
 -20   1   5    2.87    1.62
 -20   1   4    0.75    1.21
 -20   1   4    4.71    2.21
 -20   1   3    4.55    1.27
 -20   1   3    7.24    1.88
 -20   1   3    5.90    2.10
 -20   1   2    8.87    1.69
 -20   1   2   12.32    2.03
 -20   1   1    5.80    1.31
 -20  -1  -1    5.21    1.64
 -20   1   1    9.17    1.96
 -20   1   1    8.56    1.46
 -20  -1   0    0.03    1.20
 -20   1   0   -0.67    1.41
 -20   1   0    0.28    1.75
 -20  -1   0    3.89    1.27
 -20  -1   1    6.23    1.26
 -20   1  -1    7.43    1.64
 -20  -1   1    5.97    1.51
 -20   1  -1    6.46    1.64
 -20  -1   1    9.02    1.89
 -20  -1   2    8.31    1.37
 -20  -1   2   12.03    1.79
 -20  -1   2   11.26    2.12
 -20   1  -2   11.38    1.67
 -20  -1   3    6.20    2.07
 -20  -1   3    5.09    1.88
 -20  -1   4    3.65    1.96
 -20  -1   4    2.13    1.29
 -20  -1   5    4.36    2.02
 -20  -1   5    3.51    1.68
 -20  -1   5    1.99    1.25
 -20  -1   6    7.50    1.62
 -20  -1   6    8.54    1.82
 -20  -1   6    6.87    1.59
 -20  -1   6    8.16    1.21
 -20  -1   7    5.00    1.36
 -20  -1   7    4.30    1.22
 -20  -1   8    1.56    0.80
 -20  -1   8    1.72    0.75
 -20   2   7    1.97    1.18
 -20   2   6    2.07    1.45
 -20   2   6    2.25    1.46
 -20   2   6    0.35    1.46
 -20   2   6    0.15    1.32
 -20   2   5   13.18    1.97
 -20   2   5   15.65    1.84
 -20   2   5   14.83    1.45
 -20   2   5   15.62    1.91
 -20   2   4    2.41    1.23
 -20   2   3    4.14    2.02
 -20   2   3    3.59    1.25
 -20   2   2   17.60    1.60
 -20   2   2   14.61    2.15
 -20   2   2   14.81    1.91
 -20   2   1    2.01    1.48
 -20   2   1    5.25    1.85
 -20  -2   0    0.32    1.16
 -20  -2   0    1.66    1.27
 -20   2   0    1.02    1.79
 -20   2   0   -0.95    1.51
 -20  -2   1   10.28    1.37
 -20   2  -1    6.65    1.57
 -20  -2   1    8.05    1.81
 -20  -2   1    6.00    1.52
 -20  -2   1    4.80    1.85
 -20   2  -1    6.66    1.69
 -20  -2   2   15.02    2.00
 -20  -2   2   18.06    2.35
 -20   2  -2   16.94    1.86
 -20  -2   2   20.42    1.71
 -20  -2   2   16.50    2.29
 -20   2  -3    3.62    1.40
 -20  -2   3    5.26    1.85
 -20  -2   3    3.92    2.08
 -20  -2   3    5.20    1.77
 -20  -2   3    3.83    2.10
 -20  -2   4    1.70    1.24
 -20  -2   4    2.24    1.93
 -20  -2   5   18.74    2.06
 -20  -2   5   17.44    1.69
 -20  -2   5   17.58    2.32
 -20  -2   6    0.07    1.52
 -20  -2   6    1.56    1.72
 -20  -2   6    1.37    1.41
 -20  -2   6    3.87    1.16
 -20  -2   7    3.72    1.25
 -20  -2   7    5.51    1.39
 -20  -2   7    4.84    1.41
 -20  -2   8    1.80    0.75
 -20  -2   8    2.17    0.82
 -20   3   7    1.83    1.00
 -20   3   7    1.08    1.06
 -20   3   7    1.08    1.07
 -20   3   6   -0.08    1.24
 -20   3   6    0.22    1.34
 -20   3   6    0.35    1.38
 -20   3   6    0.27    1.34
 -20   3   5    6.76    1.19
 -20   3   5    8.77    1.71
 -20   3   5    7.70    1.57
 -20   3   5    5.06    1.86
 -20   3   4    4.94    1.99
  20  -3   4    0.98    2.80
 -20   3   4    2.13    1.80
 -20   3   4    4.36    1.20
 -20   3   3   18.10    1.67
 -20   3   3   16.27    2.12
 -20   3   3   20.63    2.26
 -20   3   2    4.70    1.30
 -20   3   1   19.16    2.01
 -20   3   1   18.22    1.80
 -20   3   1   20.23    2.29
 -20   3   0    3.42    1.80
 -20  -3   0    1.70    1.13
 -20   3   0    3.91    1.41
 -20  -3   0    2.63    1.36
 -20   3  -1   15.51    1.76
 -20  -3   1   11.81    2.02
 -20  -3   1   12.79    1.53
 -20   3  -1   17.18    1.96
 -20  -3   1   19.16    1.81
 -20  -3   1   18.62    2.01
 -20  -3   2    7.46    1.39
 -20   3  -2    7.92    1.54
 -20  -3   2    9.60    2.05
 -20  -3   2    5.02    1.66
 -20  -3   2    3.79    1.92
 -20  -3   3   13.45    1.66
 -20  -3   3   19.08    2.09
 -20  -3   3   17.95    2.16
 -20  -3   3   14.94    2.51
 -20  -3   4    7.06    2.00
 -20  -3   4    6.01    2.32
 -20  -3   5    4.51    1.33
 -20  -3   5    6.44    1.61
 -20  -3   5    5.79    1.96
 -20  -3   6    3.60    1.20
 -20  -3   6    1.43    1.68
 -20  -3   6    1.14    1.53
 -20  -3   6    1.09    1.37
 -20  -3   7    0.22    1.16
 -20  -3   7    0.40    1.27
 -20  -3   8    0.57    0.66
 -20  -3   8    1.09    0.80
 -20   4   8    1.53    0.62
 -20   4   7    2.32    0.95
 -20   4   7    2.16    1.01
 -20   4   6    0.93    1.28
 -20   4   6    2.19    1.28
 -20   4   6    1.62    1.17
 -20   4   5    5.32    1.13
 -20   4   5    5.77    2.08
 -20   4   5    6.99    1.53
 -20   4   5    6.37    1.58
 -20   4   5    7.15    1.84
 -20   4   5    7.19    1.44
 -20   4   4    0.97    1.14
 -20   4   4   -0.21    1.88
 -20   4   4    1.34    2.05
 -20   4   4    1.75    1.50
 -20   4   4    2.92    1.78
 -20   4   3    1.25    1.77
 -20   4   3    2.93    1.84
 -20   4   3    5.38    1.29
 -20   4   3    3.97    1.69
 -20   4   2   26.17    2.02
 -20   4   1   31.85    2.55
 -20   4   1   22.70    2.29
 -20  -4   0   27.57    1.91
 -20   4   0   30.67    2.47
 -20  -4   1   23.11    2.22
 -20  -4   1   35.16    2.76
 -20   4  -1   21.12    2.22
 -20  -4   1   39.06    2.14
 -20   4  -1   31.12    2.45
 -20  -4   2   23.33    2.38
 -20   4  -2   26.22    2.25
 -20  -4   3    7.01    1.84
 -20  -4   3    6.19    2.26
 -20  -4   4    4.22    1.91
 -20  -4   4    5.21    2.33
 -20  -4   5    7.84    1.88
 -20  -4   5    8.20    1.59
  20   4   5    7.09    1.49
 -20  -4   6    3.31    1.67
 -20  -4   6    1.91    1.26
 -20  -4   6    2.76    1.22
 -20  -4   7    1.30    1.15
 -20  -4   7    0.72    1.21
 -20  -4   7    3.06    0.93
 -20  -4   8    1.50    0.75
 -20  -4   8    1.20    0.59
 -20   5   8    1.42    0.54
 -20   5   7    1.52    0.92
 -20   5   7    1.23    0.85
 -20   5   6    0.89    1.15
 -20   5   6    2.21    1.18
 -20   5   6    2.62    1.11
 -20   5   5    1.26    2.00
 -20   5   5    0.43    1.32
 -20   5   5    0.21    1.41
 -20   5   5    1.65    1.37
 -20   5   5    2.23    1.62
 -20   5   5    1.87    1.23
 -20   5   4    1.54    1.84
 -20   5   4    5.54    1.99
 -20   5   4    3.09    1.39
 -20   5   4    3.72    1.50
 -20   5   4    3.69    1.34
 -20   5   4    3.30    1.56
 -20   5   4    3.95    1.74
 -20   5   3   25.75    2.03
 -20   5   3   26.76    2.52
 -20   5   3   32.29    2.56
 -20   5   3   33.12    2.43
 -20   5   2   18.52    2.11
 -20   5   2   21.71    2.09
 -20   5   1   29.87    2.30
 -20   5   1   34.79    2.65
 -20   5   0    3.07    1.75
 -20  -5   0    0.41    1.10
 -20   5   0    3.19    1.42
 -20  -5   1   31.33    2.20
 -20  -5   1   26.51    2.65
 -20   5  -1   30.59    2.25
 -20  -5   1   22.81    1.97
 -20   5  -1   28.34    2.36
 -20  -5   2   20.76    2.03
 -20  -5   2   18.25    1.79
 -20   5  -2   17.26    1.94
 -20  -5   2   17.99    2.48
 -20  -5   3   30.58    2.49
 -20  -5   3   26.74    3.05
 -20  -5   4    2.51    1.82
 -20  -5   4    3.16    2.25
 -20  -5   5    3.38    1.42
  20   5   5    2.57    1.44
 -20  -5   6    0.87    1.60
 -20  -5   6    2.01    1.18
 -20  -5   7    1.79    1.11
 -20  -5   7    2.12    0.92
 -20  -5   7    0.23    1.15
 -20  -5   8    1.60    0.65
  20   5   8    2.06    0.62
 -20   6   7    4.27    0.91
 -20   6   6    2.92    1.13
 -20   6   6    1.96    1.02
 -20   6   5    3.38    1.93
 -20   6   5    4.42    1.28
 -20   6   5    4.23    1.33
 -20   6   5    4.09    1.38
 -20   6   5    4.30    1.59
 -20   6   5    3.91    1.16
 -20   6   4    7.05    2.07
 -20   6   4    8.05    1.91
 -20   6   4    7.82    1.36
 -20   6   4    8.25    1.54
 -20   6   4    5.15    1.68
 -20   6   4    6.60    1.46
 -20   6   4    5.74    1.31
 -20   6   3   40.80    2.40
 -20   6   3   39.78    2.99
 -20   6   3   37.00    2.44
 -20   6   3   40.58    2.75
 -20   6   3   38.99    2.90
 -20   6   2    2.35    1.66
 -20   6   2    6.50    1.67
 -20   6   1   20.99    2.28
 -20   6   1   21.30    2.01
 -20   6   0    2.05    1.53
 -20  -6   0    3.93    1.14
 -20   6   0    3.01    1.71
 -20   6  -1   20.27    2.22
 -20   6  -1   17.51    2.05
 -20  -6   1   29.14    1.93
 -20  -6   1   27.90    2.66
 -20   6  -2    5.32    1.64
 -20  -6   2    8.61    1.48
 -20  -6   2    8.65    2.23
 -20  -6   3   49.44    3.27
 -20  -6   3   56.53    4.18
 -20  -6   4   11.23    1.62
 -20  -6   4    9.42    2.57
 -20  -6   4    8.02    1.80
  20   6   4    8.74    1.72
 -20  -6   5    5.20    1.82
  20   6   5    5.13    1.54
 -20  -6   5    5.26    1.34
 -20  -6   6    4.35    1.21
 -20  -6   6    3.27    1.53
 -20  -6   7    5.28    1.09
 -20  -6   7    4.58    1.09
 -20  -6   7    6.12    0.95
 -20   7   6    9.25    1.18
 -20   7   5    9.20    1.95
 -20   7   5    9.44    1.40
 -20   7   5    7.04    1.28
 -20   7   5    9.61    1.20
 -20   7   4    1.24    1.64
 -20   7   4    2.02    1.98
 -20   7   4    2.45    1.35
 -20   7   4    2.44    1.14
 -20   7   4    1.27    1.16
 -20   7   4    2.46    1.06
 -20   7   4    3.72    1.53
 -20   7   3   87.95    4.65
 -20   7   3   87.25    4.81
 -20   7   3   78.58    4.55
 -20   7   3   87.89    4.88
 -20   7   2    6.59    1.80
 -20   7   2    7.58    1.68
 -20   7   2   12.24    1.98
 -20   7   1    9.97    1.73
 -20   7   1    7.50    1.69
 -20   7   1   10.09    1.60
 -20   7   1    8.72    1.90
 -20  -7   0    2.07    1.09
 -20   7   0    1.66    1.64
 -20   7  -1    8.89    1.71
 -20  -7   1    8.42    2.08
 -20  -7   1    6.31    1.36
 -20   7  -2    8.18    1.68
 -20  -7   2    4.62    1.52
 -20  -7   2    5.93    1.47
 -20  -7   2    5.76    2.22
 -20  -7   3   70.21    5.07
 -20  -7   3   73.41    4.12
 -20  -7   4    3.04    1.34
 -20  -7   4    3.60    1.60
  20   7   4    3.74    1.62
 -20  -7   4    1.40    2.23
  20   7   5    6.42    1.52
 -20  -7   5    5.46    1.73
 -20   7  -6    7.81    1.19
 -20  -7   6    8.15    1.48
 -20  -7   6    7.97    1.54
 -20  -7   7    1.67    0.81
 -20  -7   7    0.34    0.87
 -20   8   5    6.85    1.83
 -20   8   4    8.06    1.50
 -20   8   4    5.57    1.71
 -20   8   4    7.60    2.00
 -20   8   4    8.45    1.41
 -20   8   3   21.37    1.97
 -20   8   3   23.50    2.14
 -20   8   3   25.17    2.36
 -20   8   3   19.55    1.83
 -20   8   2    0.77    1.57
 -20   8   2    4.37    1.80
 -20   8   2   -0.32    1.47
 -20   8   2    0.19    1.73
 -20   8   1    2.84    1.62
 -20   8   1    0.85    1.68
 -20   8   1    2.55    1.39
 -20   8   1    3.72    1.77
 -20  -8   0    0.99    0.97
 -20   8   0   -0.71    1.59
 -20   8   0    0.75    1.54
 -20   8  -1   -1.47    1.64
 -20  -8   1    1.97    1.18
 -20  -8   2    1.44    2.17
 -20  -8   2    1.00    1.28
 -20   8  -2    0.79    1.51
  20   8   3   29.18    1.93
 -20  -8   3   23.33    3.09
 -20   8  -3   21.83    2.11
  20   8   4    8.50    1.75
 -20  -8   5    4.39    1.61
  20   8   5    3.34    1.41
 -20  -8   6    1.80    1.28
 -20  -8   6    2.41    1.04
 -20  -8   6    1.44    1.20
  20   8   7    0.90    0.88
 -20  -8   7    1.29    0.69
 -20   9   5   10.54    1.74
 -20   9   4   10.25    1.33
 -20   9   4   12.20    1.99
 -20   9   3   11.10    1.48
 -20   9   3   13.80    1.75
 -20   9   3   10.97    1.42
 -20   9   3   15.90    2.05
 -20   9   2   11.25    1.91
 -20   9   2    6.67    1.33
 -20   9   2    9.08    1.56
 -20   9   2    8.39    1.96
 -20   9   2    4.08    1.68
 -20   9   2    7.83    1.22
 -20   9   1   23.90    2.23
 -20   9   1   23.77    2.28
 -20   9   1   18.50    2.18
 -20   9   1   21.89    1.97
 -20   9   0    1.12    1.49
 -20   9   0   -0.41    1.65
 -20   9   0    1.86    1.59
 -20  -9   1   18.71    1.61
 -20  -9   1   17.67    2.52
 -20   9  -1   20.52    2.13
 -20   9  -1   21.07    1.98
 -20  -9   2    7.76    2.39
 -20   9  -2    7.83    1.56
 -20  -9   2    8.56    1.39
 -20   9  -2    6.72    1.74
  20   9   3   16.73    1.56
 -20  -9   3   14.47    2.73
 -20   9  -3   10.99    1.71
  20   9   4    7.82    1.69
  20   9   4    9.49    1.45
 -20  -9   5    6.71    1.50
  20   9   5    8.03    1.49
  20   9   5   11.61    1.39
 -20  -9   6    1.06    1.11
  20   9   6    1.22    1.08
 -20  -9   6    2.28    1.00
 -20  -9   6    2.09    0.95
  20   9   7   25.28    1.48
 -20  10   4   17.93    1.93
 -20  10   4   17.18    2.03
 -20  10   3   34.36    2.59
 -20  10   3   28.49    2.27
 -20  10   2    1.18    1.71
 -20  10   2    2.59    1.91
 -20  10   2    0.29    1.34
 -20  10   2   -1.80    1.58
 -20  10   1    9.67    2.03
 -20  10   1   11.58    1.56
 -20  10   1   15.65    1.93
 -20  10   0    1.79    1.55
 -20  10   0    2.35    1.74
 -20  10   0   -1.81    1.76
 -20 -10   1   20.37    2.58
 -20 -10   1   17.71    1.42
 -20  10  -1    8.89    1.92
 -20  10  -1   12.07    1.88
 -20 -10   2    2.11    2.27
  20  10   2    3.10    1.64
 -20 -10   2    1.60    1.19
 -20  10  -2    0.04    1.58
 -20  10  -2    2.52    1.51
 -20  10  -3   34.46    2.51
 -20  10  -3   32.83    2.62
  20  10   4   20.32    2.11
  20  10   4   27.19    1.89
 -20 -10   5   12.22    1.41
  20  10   5   12.32    1.56
 -20 -10   6    1.27    0.88
  20  10   6    0.90    0.98
 -20 -10   6    1.20    0.84
 -20  10  -6   -0.04    0.94
  20  10   7    7.32    0.73
 -20  11   4   14.26    1.85
 -20  11   3    1.71    1.62
 -20  11   2    6.87    1.84
 -20  11   2    5.07    1.34
 -20  11   2    4.54    1.88
 -20  11   1    3.53    1.32
 -20  11   1    4.82    1.64
 -20  11   1    5.50    1.97
 -20  11   0    3.22    1.58
 -20  11   0    2.96    1.79
 -20  11   0    0.52    1.68
 -20  11  -1    2.14    1.72
 -20 -11   1    2.54    2.10
  20  11   1    2.29    1.57
 -20  11  -1    3.97    1.66
 -20  11  -1    3.84    1.65
 -20  11  -2   -0.13    1.62
 -20  11  -2    4.22    1.57
 -20 -11   2    2.45    1.13
  20  11   2    3.43    1.63
  20  11   3    2.46    1.33
 -20  11  -3    1.71    1.50
 -20  11  -3    1.11    1.35
 -20 -11   3    4.31    1.23
  20  11   3    2.56    1.62
  20  11   4   15.25    1.50
  20  11   4   12.09    1.73
 -20  11  -4   12.32    1.48
  20  11   5    5.36    1.18
 -20 -11   5    5.42    1.08
  20  11   5    4.46    1.25
 -20  11  -6    0.55    0.86
  20  11   6    1.02    0.87
 -20  12   3    8.89    1.75
 -20  12   3   13.33    1.77
 -20  12   2    6.67    1.84
 -20  12   2    3.51    1.90
  20  12  -1   10.74    1.54
 -20  12   1   12.76    1.77
 -20  12   1   14.16    2.16
 -20  12   0    2.12    1.78
 -20  12   0    0.37    1.75
  20  12   0    3.13    1.46
 -20  12   0    4.24    1.58
 -20  12   0    4.34    1.18
  20  12   1   13.09    1.74
 -20  12  -1   12.36    1.89
 -20  12  -1   13.73    1.84
 -20  12  -1    9.05    1.94
  20  12   2    2.72    1.56
 -20  12  -2    0.55    1.58
 -20  12  -2    1.01    1.54
 -20  12  -3    9.90    1.54
  20  12   3    9.63    1.67
  20  12   3   11.99    1.47
 -20  12  -3    8.43    1.60
 -20 -12   3   11.77    1.31
  20  12   4    5.13    1.25
 -20 -12   4    4.31    1.07
 -20  12  -4    3.65    1.22
 -20 -12   5    2.63    0.95
  20  12   5    0.73    1.07
  20  12   5    2.80    1.06
  20  12   6    3.46    0.81
 -20  12  -6    1.56    0.74
 -20  13   3    5.17    1.53
 -20  13   3    7.18    1.53
 -20  13   2   12.55    1.89
 -20  13   1   11.10    1.97
 -20  13   1    8.23    1.48
  20  13  -1    6.93    1.37
 -20  13   0   -1.03    1.73
 -20  13   0    1.47    1.77
 -20  13   0    1.56    1.41
  20  13   0    2.50    1.39
 -20  13  -1    8.74    1.84
 -20  13  -1   13.01    1.80
 -20  13  -1    8.83    1.58
  20  13   1    6.59    1.60
  20  13   2    9.05    1.68
 -20  13  -2    7.32    1.72
 -20  13  -3    7.06    1.42
  20  13   3    5.65    1.45
 -20 -13   3    6.12    1.07
 -20  13  -3    4.44    1.42
  20  13   4    5.71    1.19
 -20 -13   4    6.37    1.05
 -20  13  -4    5.46    1.18
  20  13   5   -0.44    0.95
  20  13   5    0.48    0.93
 -20  14   3    5.07    1.32
 -20  14   2    2.22    1.49
 -20  14   1    2.21    1.67
 -20  14   0    0.95    1.71
 -20  14   0   -0.28    1.25
 -20  14   0    0.08    1.57
  20  14   0    0.05    1.24
 -20  14  -1    4.74    1.64
 -20  14  -1    4.41    1.37
 -20  14  -1    1.93    1.61
  20  14   1    2.83    1.36
 -20  14  -2    3.77    1.45
 -20  14  -2    2.42    1.31
  20  14   2    2.82    1.36
 -20  14  -2    0.47    1.44
 -20  14  -3    7.58    1.38
  20  14   3    7.14    1.37
 -20  14  -3    5.92    1.32
 -20  14  -4    1.45    0.98
 -20  14  -5    1.18    0.84
 -20  15   2    4.49    1.43
 -20  15   1    3.50    1.64
 -20  15   0    5.88    1.63
 -20  15   0    3.40    1.47
  20  15   0    4.49    1.16
 -20  15  -1    2.02    1.50
 -20  15  -1    4.66    1.21
 -20  15  -1    1.71    1.49
  20  15   1    2.39    1.19
 -20  15  -2    1.33    1.34
 -20  15  -2    1.84    1.16
 -20  15  -2   -0.56    1.33
  20  15   2    1.60    1.18
 -20  15  -3    4.95    1.20
 -20  15  -3    3.08    1.11
 -20  15  -3    2.68    1.10
  20  15   3    1.73    1.12
 -20  15  -4    2.26    0.95
  20  15   4    2.84    0.95
 -20  15  -4    2.29    0.85
  20  15   5    1.64    0.55
 -20  15  -5    1.52    0.59
 -20  16   2    1.74    1.13
 -20  16   1    0.70    1.39
 -20  16   1   -0.24    1.28
 -20  16   0    2.16    1.42
  20  16   0    1.03    0.91
 -20  16   0    0.67    1.30
 -20  16  -1    1.95    1.34
 -20  16  -1   -0.36    1.32
  20  16   1    0.27    0.99
 -20  16  -2    0.88    1.21
 -20  16  -2    2.16    1.00
 -20  16  -2    0.33    1.14
  20  16   2    2.21    1.02
 -20  16  -3    0.52    1.01
 -20  16  -3    1.98    0.90
  20  16   3    1.27    0.94
 -20  16  -3    2.04    0.88
 -20  17   1    4.42    1.17
 -20  17   0    1.32    1.15
 -20  17   0    1.17    1.20
 -20  17  -1    0.24    1.11
 -20  17  -1    3.55    1.17
 -20  17  -2    1.32    0.96
 -20  17  -2    1.27    1.04
 -20  17  -3    0.31    0.72
  20  17   3    0.70    0.63
 -20  17  -3    0.96    0.68
 -20  18   1    3.42    0.82
 -20  18  -1    3.48    0.93
 -20  18  -1    2.23    0.93
 -20  18  -2    2.18    0.66
 -20  18  -2    1.95    0.70
 -21   0   0    1.62    1.77
 -21   0   0   -3.01    1.70
 -21   0   0   -0.42    1.30
 -21   0   1    0.91    1.43
 -21   0   1   -0.82    1.84
 -21   0  -1   -1.67    1.65
 -21   0   1    0.61    1.28
 -21   0   2    2.56    1.66
 -21   0   2    3.65    1.92
 -21   0  -2    2.73    1.57
 -21   0   3   -0.35    1.25
 -21   0   3   -1.16    2.12
 -21   0   3    0.05    1.77
 -21   0   4    3.27    1.29
 -21   0   4   -0.74    2.14
 -21   0   4    2.15    1.92
 -21   0   5    1.95    1.92
 -21   0   5    3.04    1.61
 -21   0   5    1.04    1.21
 -21   0   6    0.97    1.43
 -21   0   6   -1.11    1.01
 -21   0   7    0.84    1.07
 -21   1   7    1.84    1.15
 -21   1   6    2.05    1.47
 -21   1   6    1.30    1.40
 -21   1   6    2.24    1.50
 -21   1   5    9.44    1.33
 -21   1   5    8.30    1.75
 -21   1   5   10.49    1.89
 -21   1   4    0.60    2.14
 -21   1   4   -0.20    1.19
 -21   1   3   34.16    2.78
 -21   1   3   29.03    2.15
 -21   1   3   31.44    2.85
 -21   1   2    4.23    1.71
 -21   1   2    5.92    2.11
 -21   1   1    4.71    1.96
 -21   1   1    5.15    1.47
 -21   1   1    2.99    1.93
 -21  -1  -1    3.07    1.64
 -21   1   1    2.80    1.22
 -21  -1   0    2.42    1.34
 -21   1   0    0.84    1.88
 -21   1   0   -0.45    1.60
 -21  -1   0    0.19    1.25
 -21   1  -1    2.82    1.58
 -21  -1   1    3.38    1.54
 -21  -1   1    6.54    1.96
 -21   1  -1    4.21    1.61
 -21  -1   1    2.65    1.28
 -21  -1   2    4.77    2.07
 -21  -1   2    5.04    1.72
 -21  -1   2    6.02    1.30
 -21   1  -2    5.71    1.60
 -21  -1   3   29.37    2.78
 -21  -1   3   31.78    2.73
 -21  -1   4   -0.05    1.94
 -21  -1   4    0.98    1.27
 -21  -1   5    7.86    2.06
 -21  -1   5    6.32    1.72
 -21  -1   5    9.58    1.42
 -21  -1   6    3.61    1.65
 -21  -1   6    2.87    1.45
 -21  -1   6    1.87    1.40
 -21  -1   6    2.94    1.08
 -21  -1   7    1.91    1.23
 -21  -1   7    0.77    1.08
 -21  -1   8    1.12    0.64
 -21  -1   8    0.82    0.69
 -21   2   7    0.94    1.05
 -21   2   7    1.46    1.03
 -21   2   6    3.06    1.30
 -21   2   6    4.15    1.40
 -21   2   6    2.02    1.45
 -21   2   6    3.42    1.40
 -21   2   5   10.00    1.32
 -21   2   5   12.70    1.77
 -21   2   5    8.60    1.64
 -21   2   5    9.24    1.80
 -21   2   4    5.35    1.63
 -21   2   4    4.35    1.26
 -21   2   3    3.34    1.85
 -21   2   3    3.60    2.08
 -21   2   3    5.41    1.33
 -21   2   2    3.96    1.68
 -21   2   2    1.60    2.01
 -21   2   2    4.26    1.99
 -21   2   2    3.27    1.32
 -21   2   1    1.90    1.98
 -21   2   1    3.03    1.44
 -21   2   1   -1.31    1.63
 -21   2   0    9.09    2.04
 -21  -2   0    4.97    1.45
 -21   2   0    5.32    1.60
 -21  -2   0    5.87    1.35
 -21  -2   1    2.33    1.88
 -21  -2   1    4.39    1.57
 -21   2  -1    5.27    1.72
 -21   2  -1    3.03    1.50
 -21  -2   1    6.49    1.36
 -21  -2   2    3.36    1.72
 -21  -2   2    5.31    2.05
 -21  -2   2    3.03    1.36
 -21   2  -2    6.37    1.60
 -21   2  -3    3.71    1.46
 -21  -2   3    4.98    1.82
 -21  -2   3    3.69    1.89
 -21  -2   3    5.19    2.06
 -21  -2   4    4.12    1.40
 -21  -2   4    7.00    2.06
 -21  -2   5   13.84    1.56
 -21  -2   5   12.41    1.85
 -21  -2   5   13.86    2.18
 -21  -2   6    4.61    1.14
 -21  -2   6    5.17    1.53
 -21  -2   6    2.57    1.63
 -21  -2   6    3.33    1.41
 -21  -2   7    2.85    1.14
 -21  -2   7    0.92    1.22
 -21  -2   8    1.60    0.62
 -21  -2   8    2.11    0.69
 -21   3   8    0.17    0.56
 -21   3   7    0.14    0.89
 -21   3   7    0.75    0.96
 -21   3   6    0.73    1.19
 -21   3   6    0.38    1.29
 -21   3   6   -0.69    1.29
 -21   3   6    0.48    1.28
 -21   3   5   16.53    2.12
 -21   3   5   16.31    1.73
 -21   3   5   14.73    1.85
 -21   3   5   14.41    1.76
 -21   3   5   13.36    1.45
 -21   3   4    1.89    1.20
 -21   3   4    2.58    2.01
 -21   3   4    2.84    1.84
 -21   3   3   13.73    2.18
 -21   3   3    8.73    1.46
 -21   3   2   21.07    2.26
 -21   3   2   18.03    1.76
 -21   3   1   22.86    2.29
 -21  -3  -1   24.31    1.98
 -21   3   1   28.84    2.18
 -21   3   1   22.89    2.58
 -21  -3   0    0.71    1.35
 -21   3   0    3.78    1.86
 -21  -3   0    1.19    1.23
 -21   3   0    2.45    1.58
 -21  -3   1   23.47    2.11
 -21  -3   1   16.09    2.27
 -21   3  -1   26.75    2.16
 -21  -3   1   19.23    1.77
 -21   3  -1   21.73    2.22
 -21  -3   1   24.97    2.31
 -21  -3   2   21.22    2.17
 -21  -3   2   19.81    2.50
 -21   3  -2   23.47    2.04
 -21  -3   2   20.09    1.81
 -21   3  -2   16.10    1.85
 -21  -3   2   20.67    2.38
 -21   3  -3   14.57    1.74
 -21  -3   3    9.67    2.34
 -21  -3   3   13.33    2.04
 -21  -3   3   10.56    1.63
 -21  -3   4    4.01    1.97
 -21   3  -4    5.63    1.39
 -21  -3   5   17.36    2.18
 -21  -3   5   14.98    1.80
 -21  -3   5   10.66    1.52
 -21  -3   6    1.38    1.62
 -21  -3   6   -2.26    1.51
 -21  -3   6    2.89    1.31
 -21  -3   6    1.55    1.11
 -21  -3   7   -0.08    1.26
 -21  -3   7    0.60    1.07
 -21  -3   7    1.72    1.21
 -21  -3   8    0.33    0.64
 -21  -3   8   -0.08    0.54
 -21   4   8    0.37    0.47
 -21   4   7    0.89    0.91
 -21   4   7    1.70    0.84
 -21   4   6    2.61    1.21
 -21   4   6    4.89    1.16
 -21   4   6    2.07    1.23
 -21   4   5    4.66    1.41
 -21   4   5    4.30    1.52
 -21   4   5    5.32    1.78
 -21   4   5    5.97    1.41
 -21   4   5    3.99    2.04
 -21   4   4    0.30    1.20
 -21   4   4    2.09    1.36
 -21   4   4    3.11    1.82
 -21   4   4    0.21    1.82
 -21   4   4    2.63    1.45
 -21   4   4    1.71    1.48
 -21   4   3    7.41    1.37
 -21   4   3    6.41    1.91
 -21   4   3    3.53    1.89
 -21   4   3    7.89    2.15
 -21   4   3    7.38    1.79
 -21   4   1   19.93    2.20
 -21   4   1   25.31    2.46
 -21  -4   0    1.81    1.42
 -21   4   0    3.53    1.75
 -21  -4   0    1.46    1.20
 -21   4   0    1.70    1.56
 -21  -4   1   22.44    2.23
 -21  -4   1   32.54    2.67
 -21   4  -1   19.51    2.16
 -21  -4   1   34.47    2.12
 -21   4  -1   29.81    2.43
 -21  -4   2   26.85    2.54
 -21  -4   2   32.96    3.00
 -21   4  -2   23.52    2.33
 -21   4  -2   30.96    2.40
 -21  -4   3    8.36    2.35
 -21  -4   3    8.24    1.54
 -21  -4   3    9.13    1.97
 -21  -4   4    2.91    1.90
 -21  -4   4    5.74    2.36
 -21  -4   5    7.04    1.90
 -21  -4   5    5.33    1.52
 -21  -4   5    7.18    1.39
 -21  -4   6    4.39    1.62
 -21  -4   6    3.66    1.52
 -21  -4   6    1.38    1.21
 -21  -4   6    5.06    1.19
 -21  -4   7    1.00    1.06
 -21  -4   7    0.12    0.83
 -21  -4   7    1.61    1.13
 -21  -4   8    1.26    0.58
 -21   5   7    2.13    0.85
 -21   5   6    9.98    1.26
 -21   5   6   10.06    1.28
 -21   5   6   10.10    1.22
 -21   5   5    1.10    1.93
 -21   5   5    3.33    1.28
 -21   5   5    3.45    1.39
 -21   5   5    2.00    1.35
 -21   5   5    4.38    1.64
 -21   5   5    3.96    1.24
 -21   5   4    3.08    1.88
 -21   5   4    5.20    2.12
 -21   5   4    6.58    1.39
 -21   5   4    4.12    1.48
 -21   5   4    7.17    1.39
 -21   5   4    4.84    1.53
 -21   5   4    7.52    1.83
 -21   5   3   20.55    2.02
 -21   5   3   17.40    2.18
 -21   5   3   14.71    1.55
 -21   5   3   16.16    2.19
 -21   5   2   57.78    3.64
 -21   5   1   14.23    2.14
 -21   5   0    2.12    1.46
 -21  -5   0    1.64    1.21
 -21   5   0    2.81    1.77
 -21   5  -1    8.18    1.80
 -21   5  -1   10.67    1.69
 -21  -5   1    7.85    1.59
 -21  -5   1    7.91    1.99
 -21  -5   1    4.79    1.40
 -21   5  -2   56.22    3.26
 -21   5  -2   51.67    3.25
 -21  -5   2   49.97    3.09
 -21  -5   2   45.36    3.82
 -21  -5   3   17.96    1.81
 -21  -5   3   14.76    2.08
 -21  -5   3   14.23    2.63
 -21  -5   4    8.14    1.88
 -21  -5   4    5.66    2.30
 -21  -5   4    5.55    1.48
 -21  -5   5    2.78    1.85
 -21  -5   5    2.55    1.35
 -21   5  -5    1.79    1.21
  21   5   5    2.25    1.39
 -21  -5   6    8.71    1.62
 -21  -5   6    8.16    1.65
 -21  -5   6   10.14    1.32
 -21  -5   7    3.66    1.04
 -21  -5   7    3.98    0.89
 -21  -5   7    3.27    1.09
 -21   6   6    6.03    1.07
 -21   6   6   11.26    1.18
 -21   6   5    6.77    1.89
 -21   6   5    4.26    1.37
 -21   6   5    5.25    1.24
 -21   6   5    3.30    1.12
 -21   6   4    5.73    2.02
 -21   6   4    6.78    1.46
 -21   6   4    7.07    1.29
 -21   6   4    7.59    1.45
 -21   6   4    6.32    1.28
 -21   6   4   10.30    1.73
 -21   6   3   29.15    2.04
 -21   6   3   31.40    2.40
 -21   6   3   32.32    2.62
 -21   6   3   32.87    2.30
 -21   6   3   29.14    2.65
 -21   6   2   -0.65    1.56
 -21   6   1    4.49    1.79
 -21   6   1    3.45    1.52
 -21   6   0   25.86    2.37
 -21  -6   0   23.70    1.84
 -21   6   0   22.52    2.22
 -21   6  -1    5.65    1.78
 -21  -6   1    6.00    2.06
 -21   6  -1    4.93    1.58
 -21  -6   1    6.65    1.40
 -21   6  -2    2.94    1.55
 -21  -6   2    3.25    1.45
 -21  -6   2   -0.25    1.99
 -21  -6   3   40.06    3.67
 -21  -6   3   34.02    2.82
 -21  -6   4    8.05    1.82
 -21  -6   4   11.43    1.61
  21   6   4    6.58    1.67
 -21  -6   5    8.45    1.86
 -21  -6   5    5.18    1.33
 -21  -6   5    9.55    1.44
  21   6   5    6.75    1.50
 -21  -6   6   12.74    1.36
 -21  -6   6   11.08    1.62
 -21  -6   6   10.41    1.62
 -21  -6   7    3.09    0.94
 -21  -6   7    2.88    0.95
 -21   7   5    5.76    1.30
 -21   7   5    5.63    1.84
 -21   7   4    5.17    1.56
 -21   7   4    5.95    1.38
 -21   7   4    5.00    2.01
 -21   7   3   32.95    2.46
 -21   7   3   35.66    2.69
 -21   7   3   33.78    2.36
 -21   7   3   34.39    2.74
 -21   7   2    1.59    1.60
 -21   7   2    1.97    1.58
 -21   7   1    4.70    1.69
 -21   7   1    2.11    1.67
 -21   7   1    1.53    1.45
 -21   7   0   23.64    2.26
 -21   7   0   27.41    2.25
 -21   7  -1    3.90    1.67
 -21   7  -1    3.88    1.60
 -21  -7   1    0.47    1.24
 -21  -7   1    1.07    1.90
 -21  -7   2    2.76    1.54
 -21   7  -2    4.87    1.68
 -21  -7   2    4.94    2.25
 -21  -7   2    2.60    1.41
 -21  -7   3   28.14    2.22
 -21  -7   3   32.73    2.40
 -21  -7   3   31.39    3.29
 -21  -7   4    7.52    1.65
  21   7   4    7.29    1.65
 -21  -7   5    4.94    1.70
  21   7   5    4.85    1.44
 -21  -7   6    7.31    1.39
 -21  -7   6    7.05    1.42
  21   7   7    2.77    0.83
 -21  -7   7    2.46    0.77
 -21   8   5    1.82    1.64
 -21   8   4   13.82    1.66
 -21   8   4   13.30    1.56
 -21   8   3    0.69    1.39
 -21   8   3    2.06    1.60
 -21   8   3    0.62    1.74
 -21   8   3    2.26    1.83
 -21   8   3   -0.98    1.22
 -21   8   2    2.24    1.53
 -21   8   2    0.05    1.70
 -21   8   2    1.17    1.20
 -21   8   2    4.46    1.84
 -21   8   1    2.91    1.69
 -21   8   1    3.33    1.45
 -21   8   1    0.28    1.59
 -21   8   1    2.03    1.62
 -21   8   0    1.74    1.66
 -21  -8   0    3.88    1.07
 -21   8   0    3.12    1.58
 -21   8  -1    2.61    1.65
 -21  -8   1    1.02    1.22
 -21  -8   1    2.95    2.01
 -21   8  -1    1.02    1.62
 -21  -8   2    2.32    1.34
 -21  -8   2    2.43    2.18
 -21   8  -2    1.17    1.57
 -21  -8   3   -0.29    2.27
 -21  -8   3    3.82    1.41
  21   8   4   18.17    2.05
  21   8   4   22.03    1.73
 -21  -8   5    5.17    1.57
 -21  -8   5    6.29    1.29
  21   8   5    5.05    1.39
 -21  -8   6    7.25    1.31
  21   8   6    6.25    1.12
 -21  -8   6    7.14    1.08
 -21   8  -6    5.43    1.06
 -21  -8   6    6.22    1.19
  21   8   7    3.90    0.76
 -21   9   5    9.75    1.64
 -21   9   4   10.65    1.32
 -21   9   4   10.99    1.78
 -21   9   4   13.58    2.03
 -21   9   3   15.27    1.49
 -21   9   3   12.17    1.82
 -21   9   3   15.95    2.18
 -21   9   3   16.90    2.07
 -21   9   2    0.75    1.21
 -21   9   2    2.52    1.49
 -21   9   2   -0.15    1.04
 -21   9   2    2.06    1.80
 -21   9   1    1.98    1.61
 -21   9   1    2.76    1.78
 -21   9   1    2.97    1.40
 -21   9   1    2.07    1.69
 -21   9   0    2.02    1.63
 -21   9   0    1.90    1.75
 -21   9   0    2.83    1.59
 -21   9  -1    1.21    1.67
 -21   9  -1    4.14    1.67
 -21  -9   1    3.06    1.17
 -21   9  -1    3.19    1.50
 -21  -9   2    2.66    1.28
 -21   9  -2    1.11    1.59
 -21  -9   2   -1.65    2.16
 -21   9  -3   15.12    1.75
 -21  -9   3   11.02    1.59
  21   9   4   12.16    1.45
  21   9   4    9.87    1.76
  21   9   5    8.02    1.23
 -21  -9   5    4.21    1.20
  21   9   5    6.64    1.37
 -21  -9   5    7.40    1.43
 -21  -9   6    8.34    1.00
 -21   9  -6    4.55    0.99
 -21  -9   6    5.01    0.97
 -21  -9   6    4.87    1.08
  21   9   6    6.35    1.04
 -21  10   4   13.65    1.77
 -21  10   4   17.70    2.00
 -21  10   3   17.36    1.84
 -21  10   3   18.11    2.22
 -21  10   3   21.95    2.16
 -21  10   2    2.92    1.44
 -21  10   2   11.68    1.94
 -21  10   1    3.48    1.80
 -21  10   1    2.93    1.56
 -21  10   1    4.41    1.40
 -21  10   1    4.87    1.85
 -21  10   0    8.08    1.70
 -21  10   0    5.34    1.77
 -21  10   0    4.11    1.72
 -21  10  -1    3.76    1.76
 -21  10  -1    3.80    1.65
 -21 -10   1    5.22    1.09
 -21  10  -2    5.37    1.52
 -21 -10   2    8.14    1.32
  21  10   2    8.81    1.75
 -21  10  -3   20.54    1.98
 -21 -10   3   20.68    1.77
  21  10   4   21.88    1.68
  21  10   4   17.53    1.96
 -21 -10   4   18.34    1.85
  21  10   5    3.87    1.13
 -21 -10   5    3.76    1.12
 -21 -10   5    3.70    1.06
  21  10   5    3.35    1.24
  21  10   6    1.34    0.88
 -21 -10   6    3.47    0.80
 -21 -10   6    0.62    0.79
 -21  10  -6    0.76    0.83
 -21  11   4    6.72    1.60
 -21  11   3   34.05    2.66
 -21  11   3   34.62    2.60
 -21  11   2   20.90    2.16
 -21  11   2   13.01    1.61
 -21  11   1   12.31    1.53
 -21  11   1   11.12    2.02
 -21  11   1    8.82    1.72
 -21  11   0   -0.33    1.74
 -21  11   0    3.65    1.27
 -21  11   0    3.85    1.64
 -21  11   0    0.07    1.72
  21  11   1    8.28    1.73
 -21  11  -1    4.86    1.81
  21  11   2   14.01    1.90
 -21  11  -2   20.55    1.87
 -21 -11   2   13.05    1.43
 -21  11  -2   18.03    2.02
 -21  11  -3   28.64    2.20
  21  11   3   30.04    2.44
 -21  11  -3   36.37    2.38
 -21 -11   3   30.57    2.08
  21  11   4    6.31    1.23
 -21 -11   4    5.01    1.17
  21  11   4    4.36    1.45
  21  11   5    4.56    1.09
  21  11   5    2.51    1.12
 -21 -11   5    4.06    1.00
 -21  11  -6    1.18    0.73
  21  11   6    2.72    0.77
 -21  12   3    3.41    1.59
 -21  12   3    3.61    1.58
 -21  12   2    8.42    1.81
 -21  12   1    8.63    1.97
  21  12  -1    8.75    1.45
 -21  12   1    5.80    1.57
 -21  12   0    1.87    1.53
 -21  12   0    0.82    1.72
 -21  12   0    3.89    1.81
  21  12   0    0.42    1.40
 -21  12   0    2.21    1.17
 -21  12  -1    5.26    1.72
 -21  12  -1    8.84    1.74
 -21  12  -1   10.03    1.71
  21  12   1    7.59    1.61
 -21  12  -2    5.98    1.71
  21  12   2    4.95    1.63
 -21  12  -2    9.27    1.59
 -21  12  -3    3.32    1.41
  21  12   3    1.42    1.50
 -21 -12   3    4.37    1.09
 -21  12  -3    4.00    1.31
  21  12   4    2.07    1.11
 -21 -12   4    2.63    1.02
  21  12   5    1.29    0.92
 -21 -12   5    1.98    0.85
  21  12   5    0.99    0.98
 -21  12  -5    0.35    1.02
 -21  13   3   10.33    1.60
 -21  13   3   11.96    1.62
 -21  13   2    5.68    1.69
 -21  13   1    0.40    1.30
  21  13  -1    1.57    1.20
 -21  13   1    0.11    1.73
 -21  13   0   24.66    2.31
 -21  13   0   27.06    2.09
 -21  13   0   26.99    2.30
  21  13   0   18.83    1.93
 -21  13  -1   -1.24    1.59
 -21  13  -1    0.78    1.57
 -21  13  -1    2.88    1.47
  21  13   1    1.23    1.41
 -21  13  -2    4.99    1.45
 -21  13  -2    1.09    1.46
  21  13   2    2.67    1.44
 -21  13  -3   10.63    1.47
 -21  13  -3    9.88    1.40
 -21  13  -3    9.89    1.50
  21  13   3    9.50    1.49
 -21  13  -4    2.74    1.19
 -21 -13   4    3.31    0.91
 -21  13  -5    0.49    0.88
 -21  14   2    2.84    1.48
 -21  14   1    5.17    1.71
 -21  14   0   -0.24    1.54
 -21  14   0    1.33    1.63
 -21  14   0    2.07    1.30
  21  14   0    2.41    1.21
 -21  14  -1    2.42    1.53
 -21  14  -1    6.56    1.58
 -21  14  -1    5.62    1.36
  21  14   1    4.84    1.34
 -21  14  -2    0.83    1.36
 -21  14  -2    0.73    1.35
 -21  14  -2    2.92    1.28
  21  14   2    1.59    1.29
 -21  14  -3    5.92    1.19
 -21  14  -3    2.41    1.16
  21  14   3    4.52    1.24
 -21  14  -4    2.20    1.02
 -21  14  -5    1.83    0.74
 -21  15   2    1.78    1.26
 -21  15   1    5.01    1.56
 -21  15   0    5.82    1.54
 -21  15   0    2.40    1.46
  21  15   0    2.64    1.06
 -21  15  -1    3.13    1.41
 -21  15  -1    4.87    1.43
 -21  15  -1    4.29    1.19
  21  15   1    4.22    1.16
 -21  15  -2    2.74    1.27
 -21  15  -2    1.96    1.28
 -21  15  -2    3.07    1.15
  21  15   2    0.96    1.13
 -21  15  -3    0.68    1.04
 -21  15  -3    2.10    0.95
  21  15   3    0.90    1.03
 -21  15  -4   11.34    1.12
 -21  16   2    1.96    1.07
 -21  16   1    2.71    1.25
 -21  16   0    0.07    1.28
 -21  16   0    1.65    1.28
 -21  16  -1    1.27    1.21
 -21  16  -1    1.28    1.20
  21  16   1    1.50    0.92
 -21  16  -2    1.20    1.09
 -21  16  -2    1.80    0.91
 -21  16  -2    2.04    1.05
  21  16   2   -0.54    0.92
 -21  16  -3    1.64    0.82
 -21  16  -3    1.58    0.69
  21  16   3    0.38    0.81
 -21  16  -3    0.09    0.78
  21  16   4    0.43    0.54
 -21  17   1    1.84    1.01
 -21  17   0    3.40    1.07
 -21  17   0    1.49    1.06
 -21  17  -1    1.53    1.03
 -21  17  -1    1.35    1.03
 -21  17  -2    1.84    0.83
 -21  17  -2    1.63    0.82
  21  17   3    0.95    0.51
 -21  18   1    2.81    0.72
 -21  18   0    1.45    0.74
 -21  18  -1    4.19    0.77
 -22   0   0    1.67    1.80
 -22   0   0    0.33    1.37
 -22   0   1    1.20    1.23
 -22   0  -1    2.88    1.72
 -22   0   1    2.19    1.58
 -22   0   1    2.12    1.94
 -22   0  -2   14.86    1.95
 -22   0   2   15.09    2.05
 -22   0   2   13.07    2.33
 -22   0   3   32.96    2.87
 -22   0   3   33.63    2.25
 -22   0   4    9.41    2.11
 -22   0   4   11.45    1.49
 -22   0   5   14.82    2.16
 -22   0   5   12.83    1.46
 -22   0   5   13.16    1.86
 -22   0   6    8.05    1.49
 -22   0   6    8.04    1.13
 -22   1   7    0.48    1.03
 -22   1   7    1.09    0.99
 -22   1   6    2.20    1.40
 -22   1   6    0.09    1.30
 -22   1   6   -0.56    1.35
 -22   1   6    0.25    1.24
 -22   1   5   14.70    1.93
 -22   1   5    9.75    1.37
 -22   1   5   12.56    1.79
 -22   1   4    3.41    1.25
 -22   1   4    1.58    2.02
 -22   1   3    5.07    1.37
 -22   1   3   11.35    2.06
 -22   1   3   11.21    2.26
 -22   1   2   37.24    2.95
 -22   1   2   38.18    2.83
 -22   1   1    1.44    1.36
 -22   1   1    4.39    1.98
 -22   1   1    1.90    1.50
 -22  -1   0    2.28    1.38
 -22   1   0    0.87    1.71
 -22   1   0    0.31    1.88
 -22  -1   0    4.33    1.43
 -22  -1   1   -0.85    1.32
 -22   1  -1    1.69    1.57
 -22   1  -1    1.25    1.62
 -22  -1   1    2.30    1.57
 -22  -1   1    2.61    2.00
 -22   1  -2   42.32    2.76
 -22  -1   2   39.69    3.12
 -22  -1   2   35.01    2.82
 -22  -1   2   31.69    2.41
 -22  -1   3   10.55    2.06
 -22  -1   3   11.53    2.34
 -22  -1   3    9.80    2.11
 -22  -1   4    3.35    1.29
 -22  -1   4    4.40    1.99
 -22  -1   5    7.20    1.37
 -22  -1   5    9.55    1.73
 -22  -1   5   12.47    2.08
 -22  -1   6    0.65    1.03
 -22  -1   6    1.39    1.55
 -22  -1   6    1.07    1.34
 -22  -1   7    1.43    1.01
 -22  -1   7    3.28    1.15
 -22   2   7    0.92    0.97
 -22   2   7    1.20    0.88
 -22   2   7    2.37    0.97
 -22   2   6    3.10    1.40
 -22   2   6    4.38    1.40
 -22   2   6    4.72    1.32
 -22   2   6    4.63    1.27
 -22   2   5    2.10    1.40
 -22   2   5   -0.24    1.56
 -22   2   5    1.37    1.45
 -22   2   5    0.45    1.06
 -22   2   4    1.66    2.07
 -22   2   4    2.67    1.60
 -22   2   4    1.58    1.23
 -22   2   3   16.48    1.64
 -22   2   3    9.42    2.11
 -22   2   3   11.23    2.36
 -22   2   2    0.77    1.29
 -22   2   2    3.26    2.04
 -22   2   2    1.75    1.69
 -22   2   1    0.28    2.03
 -22   2   1    2.18    1.49
 -22  -2  -1    2.12    1.37
 -22  -2   0    0.29    1.29
 -22   2   0    0.38    1.67
 -22  -2   0    2.06    1.44
 -22   2   0    0.67    1.88
 -22  -2   1    4.52    1.43
 -22   2  -1    2.23    1.64
 -22  -2   1    4.52    1.63
 -22  -2   1    3.50    2.04
 -22   2  -1    0.18    1.69
 -22  -2   2    1.57    1.33
 -22  -2   2    2.93    2.11
 -22  -2   2    0.93    1.68
 -22   2  -2    4.04    1.62
 -22  -2   3   11.49    2.12
 -22   2  -3   12.20    1.75
 -22  -2   4    5.05    1.41
 -22  -2   4    2.00    1.96
 -22  -2   5    2.03    1.24
 -22  -2   5    0.63    1.54
 -22  -2   5   -1.26    1.82
 -22  -2   5    0.34    1.84
 -22  -2   6    4.63    1.15
 -22  -2   6    2.70    1.58
 -22  -2   6    4.96    1.48
 -22  -2   6    4.99    1.36
 -22  -2   7    1.33    1.01
 -22  -2   7    1.74    1.13
 -22  -2   8    0.01    0.50
 -22   3   7    2.61    0.85
 -22   3   7    1.68    0.89
 -22   3   6    1.70    1.23
 -22   3   6   -0.06    1.24
 -22   3   6    1.63    1.13
 -22   3   6    0.59    1.17
 -22   3   5    1.48    1.08
 -22   3   5    1.69    1.48
 -22   3   5    0.20    1.70
 -22   3   5    1.79    1.30
 -22   3   5    1.65    1.37
 -22   3   4    0.53    1.22
 -22   3   4    2.02    1.82
 -22   3   3    4.46    2.10
 -22   3   3    3.36    1.33
 -22   3   3    1.75    1.74
 -22   3   2   12.80    2.22
 -22   3   2   14.25    1.98
 -22   3   2   12.30    1.60
 -22   3   1    4.18    2.02
 -22   3   1    9.51    1.61
 -22  -3  -1    8.26    1.53
 -22   3   1    3.83    1.76
 -22  -3   0   41.68    2.68
 -22   3   0   48.90    3.10
 -22  -3   0   44.91    2.89
 -22   3   0   37.65    3.14
 -22  -3   1    3.66    1.39
 -22  -3   1    4.64    1.64
 -22  -3   1    6.34    1.92
 -22   3  -1    5.38    1.79
 -22   3  -1    7.07    1.63
 -22  -3   2    9.11    1.62
 -22   3  -2   16.70    1.86
 -22   3  -2    9.57    1.63
 -22  -3   2   14.39    2.04
 -22  -3   2   11.27    2.22
 -22  -3   3    5.35    1.85
 -22   3  -3    3.73    1.49
 -22  -3   3    4.03    1.47
 -22  -3   4    2.04    1.88
 -22   3  -4    2.18    1.35
 -22  -3   5    0.43    1.79
 -22  -3   5    0.95    1.78
 -22  -3   5    0.36    1.44
 -22  -3   5    0.90    1.23
 -22  -3   6   -1.44    1.52
 -22  -3   6   -0.03    1.39
 -22  -3   6    0.67    1.23
 -22  -3   6    3.48    1.12
 -22  -3   7    2.63    1.12
 -22  -3   7    2.24    1.03
 -22   4   7    1.26    0.76
 -22   4   7    1.01    0.82
 -22   4   6    1.83    1.14
 -22   4   6    2.94    1.05
 -22   4   6    1.73    1.11
 -22   4   5    1.51    1.41
 -22   4   5    0.91    1.67
 -22   4   5    1.17    1.26
 -22   4   5    2.04    1.28
 -22   4   4    0.81    1.43
 -22   4   4    1.63    1.37
 -22   4   4    0.03    1.33
 -22   4   4    2.62    1.54
 -22   4   4    0.21    1.75
 -22   4   3    3.61    1.88
 -22   4   3    2.95    2.05
 -22   4   3    5.36    1.74
 -22   4   2    1.93    1.98
 -22   4   1    2.35    1.70
 -22   4   1    7.97    2.02
 -22  -4   0   15.07    1.82
 -22   4   0   18.20    2.29
 -22  -4   0   18.22    1.68
 -22   4  -1   11.33    1.95
 -22   4  -1    5.25    1.69
 -22  -4   1   11.82    2.05
 -22  -4   1   11.44    1.52
 -22  -4   1    8.33    1.76
 -22  -4   2    2.68    1.76
 -22   4  -2    4.05    1.56
 -22   4  -2    2.26    1.47
 -22  -4   2    2.15    1.97
 -22  -4   2    2.64    1.42
 -22   4  -3    4.26    1.55
 -22  -4   3    5.24    2.24
 -22  -4   3    5.60    1.85
 -22  -4   3    7.99    1.55
 -22  -4   4    3.10    1.87
 -22   4  -4    1.86    1.35
 -22  -4   4    3.35    1.44
 -22  -4   5    1.38    1.78
 -22  -4   5    1.29    1.72
 -22  -4   5    0.03    1.41
 -22  -4   6    1.40    1.41
 -22  -4   6    2.70    1.51
 -22  -4   6    1.11    1.09
 -22  -4   7    0.94    1.15
 -22  -4   7    1.37    1.05
 -22  -4   7    2.47    0.98
 -22   5   6    2.46    1.03
 -22   5   6    2.99    0.97
 -22   5   5   -1.53    1.94
 -22   5   5   -0.38    1.14
 -22   5   5    1.61    1.29
 -22   5   5    0.32    1.31
 -22   5   5   -0.69    1.50
 -22   5   5    1.31    1.13
 -22   5   4   16.46    1.66
 -22   5   4   23.87    2.15
 -22   5   4   19.51    1.72
 -22   5   4   16.15    1.83
 -22   5   4   20.97    1.90
 -22   5   3   24.46    2.23
 -22   5   3   27.25    2.48
 -22   5   3   22.32    2.48
 -22   5   2   42.80    3.05
 -22   5   1    9.58    2.06
 -22   5   1    4.72    1.79
 -22  -5   0   10.86    1.45
 -22   5   0   12.51    2.05
 -22   5   0   14.26    1.89
 -22   5  -1    9.37    1.88
 -22  -5   1    6.68    1.46
 -22   5  -1    7.90    1.64
 -22  -5   1    8.96    1.74
 -22  -5   2   35.67    3.17
 -22   5  -2   36.17    2.59
 -22  -5   2   34.30    2.44
 -22   5  -2   33.82    2.55
 -22   5  -3   25.49    2.07
 -22  -5   3   16.81    1.95
 -22  -5   3   18.69    2.77
 -22  -5   3   25.64    2.28
 -22  -5   4   17.49    1.78
 -22  -5   4   20.17    2.19
 -22   5  -4   16.25    1.80
 -22  -5   4   15.77    1.87
 -22  -5   5    0.15    1.72
 -22  -5   5    0.96    1.34
 -22   5  -5    4.25    1.20
 -22  -5   6    0.80    1.36
 -22  -5   6    4.12    1.47
 -22  -5   6    4.28    1.10
 -22  -5   7    0.46    1.09
 -22  -5   7    1.47    0.91
 -22  -5   7    1.84    0.95
 -22   6   5    4.08    1.81
 -22   6   5    4.73    1.32
 -22   6   4   12.41    1.82
 -22   6   4   10.39    1.51
 -22   6   4   11.28    1.34
 -22   6   4   12.72    2.21
 -22   6   4   13.20    1.63
 -22   6   3    5.51    1.67
 -22   6   3    5.96    1.14
 -22   6   3    6.90    1.47
 -22   6   3    4.85    1.91
 -22   6   3    6.62    1.86
 -22   6   2   -0.68    1.63
 -22   6   1    5.13    1.66
 -22   6   1    7.92    1.96
 -22   6   0    5.65    1.85
 -22   6   0    3.82    1.70
 -22  -6   0    5.15    1.31
 -22   6  -1    5.14    1.77
 -22  -6   1    7.19    1.45
 -22   6  -1    4.98    1.67
 -22   6  -2    4.00    1.60
 -22   6  -2    2.50    1.48
 -22  -6   2    2.72    1.47
 -22  -6   2    3.66    1.61
 -22  -6   2    2.71    2.11
 -22  -6   3   10.02    1.65
 -22  -6   3   11.91    2.50
 -22  -6   3    7.39    1.80
 -22  -6   4   13.55    1.90
 -22   6  -4   10.84    1.63
 -22  -6   4   14.32    1.70
  22   6   4   11.36    1.79
 -22  -6   4   14.37    1.65
 -22  -6   5    7.58    1.76
 -22  -6   5    4.32    1.27
 -22   6  -5    6.42    1.31
 -22  -6   5    7.15    1.33
 -22  -6   6    6.24    1.38
 -22  -6   6    5.16    1.37
 -22  -6   6    5.68    1.11
  22   6   7    0.72    0.77
 -22  -6   7    0.56    0.79
 -22   7   5   21.45    2.17
 -22   7   5   20.05    1.70
 -22   7   4   47.65    2.94
 -22   7   4   47.69    3.29
 -22   7   4   44.68    2.81
 -22   7   3   20.49    2.18
 -22   7   3   19.74    1.95
 -22   7   3   16.61    1.74
 -22   7   3   18.28    2.28
 -22   7   2   16.09    1.98
 -22   7   1    1.76    1.53
 -22   7   1    4.14    1.90
 -22   7   0    2.61    1.72
 -22   7   0   -1.68    1.64
 -22  -7   0   -0.30    1.15
 -22   7  -1    3.94    1.75
 -22  -7   1   -0.06    1.28
 -22   7  -1    4.92    1.62
 -22   7  -2   15.21    1.90
 -22   7  -2   15.52    1.88
 -22  -7   2   14.84    2.48
 -22  -7   2   14.42    1.82
 -22  -7   2   11.68    1.66
 -22  -7   3   16.39    1.81
 -22  -7   3   16.18    2.75
 -22  -7   3   21.92    2.03
 -22  -7   4   45.85    2.62
  22   7   4   41.84    2.63
 -22   7  -5   17.82    1.68
 -22  -7   5   17.15    1.95
  22   7   5   16.79    1.70
 -22  -7   5   19.79    1.65
 -22  -7   6    5.97    1.29
  22   7   6    6.81    1.07
 -22  -7   6    7.09    1.32
  22   7   7    2.16    0.69
 -22  -7   7    1.37    0.63
 -22   8   5   15.96    1.91
 -22   8   4   32.47    2.67
 -22   8   4   30.28    2.12
 -22   8   3    3.14    1.41
 -22   8   3    4.61    1.99
 -22   8   3    2.73    1.59
 -22   8   3    4.86    1.76
 -22   8   3    3.07    1.26
 -22   8   2    4.99    1.41
 -22   8   2    2.65    1.24
 -22   8   2    4.22    1.61
 -22   8   1    0.88    1.54
 -22   8   1    0.55    1.68
 -22   8   1   -0.16    1.45
 -22   8   1    1.49    1.82
 -22   8   0    1.03    1.66
 -22  -8   0    1.87    1.05
 -22   8  -1   -0.45    1.64
 -22  -8   1    1.28    1.22
 -22   8  -1    0.43    1.50
 -22   8  -2    5.82    1.68
 -22   8  -2    5.40    1.63
 -22  -8   2    4.10    2.23
 -22  -8   2    3.53    1.40
 -22  -8   3    5.41    1.45
 -22  -8   4   36.95    2.42
  22   8   4   39.03    2.27
  22   8   4   34.44    2.63
 -22  -8   5   13.37    1.72
 -22  -8   5   15.54    1.47
  22   8   5   18.03    1.42
 -22   8  -5   13.62    1.58
  22   8   5   12.90    1.56
  22   8   6    2.01    0.95
 -22  -8   6    2.03    1.03
 -22  -8   6    3.65    0.92
 -22  -8   6    2.30    1.12
 -22  -8   7    1.27    0.76
 -22   9   5    5.30    1.46
 -22   9   4    3.72    1.74
 -22   9   3    1.87    1.72
 -22   9   3    1.68    1.86
 -22   9   3    0.47    1.41
 -22   9   2    2.11    1.75
 -22   9   2    0.59    1.45
 -22   9   2    1.57    1.24
 -22   9   1    0.81    1.80
 -22   9   1    0.35    1.68
 -22   9   1    1.77    1.65
 -22   9   1    2.05    1.42
 -22   9   0    2.86    1.61
 -22   9   0    2.10    1.79
 -22   9  -1    2.71    1.68
 -22  -9   1    0.80    1.09
 -22   9  -1    0.62    1.53
 -22   9  -2    1.64    1.63
 -22  -9   2    1.81    1.27
 -22   9  -2    1.34    1.58
 -22  -9   3    3.72    1.33
 -22   9  -3    2.81    1.41
  22   9   4    7.00    1.21
 -22  -9   4    4.32    1.24
  22   9   4    4.30    1.52
  22   9   5    6.73    1.12
 -22   9  -5    8.42    1.35
 -22  -9   5    5.05    1.30
 -22  -9   5    6.70    1.13
  22   9   5    5.46    1.28
  22   9   6    1.31    0.83
 -22  -9   6    3.31    0.82
 -22  -9   6    2.53    0.94
 -22   9  -6    1.71    0.80
 -22  -9   6    3.10    0.79
 -22  10   4   14.85    1.88
 -22  10   3   11.72    2.01
 -22  10   3    9.91    1.90
 -22  10   2   11.93    1.69
 -22  10   2   15.96    2.09
 -22  10   1    3.03    1.72
 -22  10   1    3.06    1.68
 -22  10   1    3.78    1.44
 -22  10   1    2.70    1.75
 -22  10   0    2.00    1.74
 -22  10   0    6.37    1.67
 -22  10   0    3.29    1.36
 -22  10   0    3.39    1.67
 -22  10  -1    3.05    1.72
 -22 -10   1    3.76    1.07
 -22  10  -1    5.08    1.60
 -22  10  -2   16.23    1.97
 -22 -10   2   17.65    1.57
 -22  10  -2   13.55    1.93
  22  10   2   14.19    1.94
 -22  10  -3   11.10    1.62
 -22 -10   3   10.03    1.42
 -22 -10   4   18.87    1.54
  22  10   4   19.59    1.47
 -22 -10   4   15.47    1.70
  22  10   5    2.66    0.99
 -22 -10   5    2.40    1.03
 -22  10  -5    2.06    1.18
 -22 -10   5    2.36    0.96
  22  10   5    0.96    1.08
 -22  10  -6    2.07    0.68
 -22 -10   6    2.06    0.67
  22  10   6    2.85    0.75
 -22  11   4    4.94    1.47
 -22  11   3   14.67    1.93
 -22  11   3   17.56    2.01
 -22  11   2   12.28    1.99
 -22  11   1    6.85    1.88
 -22  11   1    4.54    1.36
 -22  11   1    7.98    1.82
 -22  11   1    5.92    1.66
 -22  11   0    1.55    1.73
 -22  11   0    2.79    1.30
 -22  11   0    2.36    1.56
 -22  11   0    3.30    1.68
  22  11   1    5.38    1.62
 -22  11  -1    7.00    1.82
 -22  11  -1    6.22    1.66
 -22  11  -2    6.04    1.65
  22  11   2    4.49    1.66
 -22 -11   2    4.36    1.13
 -22  11  -2   10.13    1.48
 -22  11  -2    6.19    1.64
  22  11   3   13.97    1.82
 -22 -11   3   12.81    1.43
 -22  11  -3   16.26    1.84
 -22  11  -3   19.01    1.74
  22  11   4    4.76    1.09
 -22  11  -4    3.06    1.34
 -22 -11   4    4.13    1.08
  22  11   4    2.73    1.34
  22  11   5    4.82    0.95
  22  11   5    5.68    1.09
 -22 -11   5    6.35    0.94
 -22  11  -5    5.77    1.20
 -22  12   3    0.36    1.44
 -22  12   3    2.20    1.55
 -22  12   2    8.81    1.77
 -22  12   1    3.66    1.76
 -22  12   1    3.73    1.48
  22  12  -1    5.07    1.37
 -22  12   0   13.26    2.02
 -22  12   0   12.43    1.51
 -22  12   0   17.61    1.91
 -22  12   0   19.34    2.02
  22  12   0   16.70    1.77
 -22  12  -1    5.44    1.74
 -22  12  -1    5.04    1.63
 -22  12  -1    7.21    1.63
  22  12   1    3.99    1.48
 -22  12  -2    6.81    1.48
 -22  12  -2    6.38    1.64
  22  12   2    8.59    1.65
 -22  12  -3    2.76    1.38
 -22  12  -3    6.92    1.37
 -22 -12   3    3.91    1.04
  22  12   3    3.91    1.43
 -22 -12   4    1.90    0.95
 -22  12  -4    1.08    1.20
  22  12   5    2.59    0.90
 -22  12  -5    2.15    0.99
 -22  13   3    4.31    1.38
 -22  13   3    4.95    1.39
 -22  13   2    8.50    1.69
 -22  13   1    3.80    1.68
  22  13  -1    1.79    1.17
 -22  13   0    0.97    1.57
 -22  13   0    1.14    1.36
 -22  13   0    0.70    1.56
  22  13   0    2.35    1.32
 -22  13  -1    1.82    1.54
 -22  13  -1    1.53    1.38
  22  13   1    1.41    1.39
 -22  13  -1    0.75    1.51
 -22  13  -2    8.01    1.44
 -22  13  -2    6.12    1.51
  22  13   2    3.60    1.39
 -22  13  -3    6.47    1.22
 -22  13  -3    4.65    1.31
 -22  13  -3    7.19    1.27
  22  13   3    5.97    1.36
 -22  13  -4    0.68    1.05
 -22  13  -5    1.13    0.74
 -22  14   2    4.84    1.44
 -22  14   1    0.57    1.50
 -22  14   0    0.46    1.49
 -22  14   0    0.58    1.23
 -22  14   0    1.26    1.42
  22  14   0    0.14    1.14
 -22  14  -1   -0.27    1.39
 -22  14  -1    0.82    1.21
 -22  14  -1    0.49    1.41
  22  14   1    1.21    1.23
 -22  14  -2    3.41    1.30
 -22  14  -2    3.16    1.24
  22  14   2    1.59    1.23
 -22  14  -2    4.41    1.35
 -22  14  -3    0.92    1.03
  22  14   3    2.84    1.14
 -22  14  -3    3.75    1.06
 -22  14  -4    3.52    0.97
  22  14   5    1.39    0.48
 -22  14  -5    0.94    0.52
 -22  15   2    0.94    1.18
 -22  15   2    1.41    1.14
 -22  15   0    2.61    1.40
  22  15   0    1.79    0.97
 -22  15   0    0.80    1.36
 -22  15  -1   -0.29    1.05
 -22  15  -1    3.52    1.34
  22  15   1    1.35    1.06
 -22  15  -1    2.10    1.29
 -22  15  -2    2.19    1.09
  22  15   2    2.89    1.07
 -22  15  -2    1.86    1.11
 -22  15  -2    2.53    1.18
 -22  15  -3    4.94    0.90
 -22  15  -3    6.00    0.87
  22  15   3    4.47    1.00
 -22  15  -4    4.19    0.77
 -22  16   2    3.42    0.97
 -22  16   0   -0.63    1.21
 -22  16   0    3.18    1.19
 -22  16  -1    3.94    1.14
  22  16   1    0.89    0.83
 -22  16  -1    3.32    1.09
 -22  16  -2    2.31    0.90
 -22  16  -2    5.18    0.99
  22  16   2    2.93    0.88
 -22  16  -2    3.33    0.91
 -22  16  -3    0.45    0.72
 -22  17   1    0.27    0.89
 -22  17   0    3.58    0.95
 -22  17  -1    1.88    0.84
 -22  17  -2    1.37    0.63
 -22  18   0   -0.13    0.58
 -23   0   0    1.24    1.46
 -23   0   0    0.47    1.88
 -23   0   1    1.12    1.41
 -23   0   1    0.17    1.56
 -23   0   1    1.66    2.04
 -23   0  -1   -3.12    1.79
 -23   0   2   -2.35    1.82
 -23   0   2    0.14    2.08
 -23   0  -2   -3.09    1.73
 -23   0   3    0.78    1.83
 -23   0   3    0.61    2.22
 -23   0   3    1.34    1.90
 -23   0   3   -0.53    1.34
 -23   0   4   -0.24    1.27
 -23   0   4    1.18    1.92
 -23   0   5    1.89    1.15
 -23   0   5    0.54    1.67
 -23   0   5    1.14    1.80
 -23   0   5    1.02    1.50
 -23   0   6    1.80    1.28
 -23   0   6    1.75    1.34
 -23   0   7    0.87    0.94
 -23   1   7    1.02    0.93
 -23   1   7    1.52    0.87
 -23   1   6    4.04    1.38
 -23   1   6    2.20    1.28
 -23   1   6    2.53    1.26
 -23   1   6    2.63    1.20
 -23   1   5    1.38    1.62
 -23   1   5    0.19    1.40
 -23   1   5    0.62    1.46
 -23   1   5    0.76    1.11
 -23   1   4    5.42    1.37
 -23   1   4    7.58    2.03
 -23   1   4    8.09    2.18
 -23   1   4    7.51    1.71
 -23   1   3    5.80    1.93
 -23   1   3    2.35    1.29
 -23   1   3    4.42    2.01
 -23   1   3    4.12    2.26
 -23   1   2   11.69    2.35
 -23   1   2    9.12    1.92
 -23   1   1    1.42    1.48
 -23   1   1    4.02    1.60
 -23   1   1    6.71    2.10
 -23   1   0    2.23    1.92
 -23  -1   0    0.47    1.44
 -23   1   0    2.41    1.45
 -23  -1   1    1.93    1.36
 -23   1  -1    1.87    1.71
 -23  -1   1    3.91    1.65
 -23  -1   1    5.48    2.11
 -23  -1   2    6.80    1.51
 -23  -1   2    8.43    1.91
 -23  -1   2    9.22    2.30
 -23   1  -2    7.69    1.82
 -23  -1   3    4.77    1.93
 -23  -1   3    2.72    1.90
 -23  -1   3    4.18    2.32
 -23  -1   4    7.73    1.44
 -23  -1   4    7.90    2.08
 -23  -1   5    0.76    1.18
 -23  -1   5    1.67    1.47
 -23  -1   5    1.93    1.80
 -23  -1   6    2.97    1.03
 -23  -1   6    2.20    1.28
 -23  -1   7    1.10    0.90
 -23  -1   7    0.72    1.01
 -23   2   7    2.23    0.82
 -23   2   7    2.38    0.86
 -23   2   6    1.19    1.25
 -23   2   6   -0.31    1.21
 -23   2   6    0.29    1.15
 -23   2   6   -0.33    1.09
 -23   2   5    0.32    1.11
 -23   2   5    1.38    1.44
 -23   2   5    3.12    1.41
 -23   2   5    0.09    1.36
 -23   2   5    2.40    1.51
 -23   2   4    6.86    2.15
 -23   2   4    7.69    1.36
 -23   2   3    7.30    1.98
 -23   2   3    2.57    2.20
 -23   2   3    7.27    1.46
 -23   2   2    9.68    1.94
 -23   2   2   11.59    2.37
 -23   2   2   14.70    1.73
 -23   2   1   16.75    2.04
 -23  -2  -1   19.94    1.88
 -23   2   1   20.64    2.60
 -23   2   1   15.77    2.30
 -23   2   0   -2.89    2.02
 -23  -2   0    1.96    1.51
 -23   2   0    1.31    1.40
 -23   2   0    0.35    1.70
 -23   2  -1   10.70    2.06
 -23   2  -1   18.70    2.17
 -23  -2   1   19.49    2.39
 -23  -2   1   14.95    2.05
 -23  -2   1   23.48    1.95
 -23   2  -2   16.60    2.04
 -23  -2   2   16.99    1.82
 -23  -2   2   13.60    2.13
 -23  -2   2   14.02    2.48
 -23  -2   3    8.51    1.98
 -23  -2   3    7.28    2.05
 -23   2  -3    6.00    1.59
 -23  -2   4   10.40    1.57
 -23  -2   4    8.35    2.06
 -23  -2   5    3.00    1.25
 -23  -2   5    2.62    1.52
 -23  -2   5    1.76    1.76
 -23  -2   5    1.19    1.79
 -23  -2   6    1.28    1.02
 -23  -2   6    1.51    1.32
 -23  -2   6    1.07    1.43
 -23  -2   6   -1.03    1.21
 -23  -2   7    2.31    0.93
 -23  -2   7    1.64    1.01
 -23   3   7    2.46    0.75
 -23   3   7    1.71    0.79
 -23   3   6    0.02    1.13
 -23   3   6    0.64    1.17
 -23   3   6    1.37    1.03
 -23   3   6    1.16    1.08
 -23   3   5    2.27    1.41
 -23   3   5    2.34    1.73
 -23   3   5    0.89    1.28
 -23   3   5    3.60    1.32
 -23   3   4    1.44    1.77
 -23   3   4    0.45    1.21
 -23   3   3   13.59    1.98
 -23   3   3   10.73    1.56
 -23   3   3   10.91    2.31
 -23   3   2   35.33    3.09
 -23   3   2   41.64    3.14
 -23   3   2   37.78    2.88
 -23  -3  -1   36.76    2.62
 -23   3   1   31.43    3.04
 -23   3   1   41.02    2.74
 -23  -3   0    2.66    1.37
 -23   3   0    2.11    1.73
 -23   3   0    1.00    1.91
 -23  -3   0    2.69    1.57
 -23   3  -1   39.49    2.72
 -23   3  -1   29.53    2.67
 -23  -3   1   41.94    2.90
 -23  -3   1   29.00    2.36
 -23  -3   1   34.25    2.70
 -23   3  -2   35.98    2.54
 -23   3  -2   27.22    2.31
 -23  -3   2   36.47    2.72
 -23  -3   2   27.83    2.31
 -23   3  -3   11.91    1.67
 -23  -3   3   14.64    2.11
 -23  -3   4    4.57    1.95
 -23  -3   5    1.10    1.24
 -23  -3   5    1.92    1.47
 -23  -3   5    1.19    1.71
 -23  -3   5    1.57    1.75
 -23  -3   6    0.67    1.02
 -23  -3   6   -0.86    1.32
 -23  -3   6    1.65    1.44
 -23  -3   6    1.43    1.13
 -23  -3   7   -0.39    0.88
 -23  -3   7    2.65    0.98
 -23   4   6    3.85    1.00
 -23   4   6    2.68    1.07
 -23   4   5    3.93    1.61
 -23   4   5    1.92    1.16
 -23   4   5    1.88    1.33
 -23   4   5    1.18    1.19
 -23   4   4    0.72    1.45
 -23   4   4    2.25    1.46
 -23   4   4    1.05    1.69
 -23   4   4    2.52    1.30
 -23   4   4    1.69    1.29
 -23   4   3    8.73    2.23
 -23   4   3   12.23    2.09
 -23   4   3   10.55    1.87
 -23   4   2   12.80    2.18
 -23   4   1   14.54    2.23
 -23   4   1   10.61    1.78
 -23  -4   0    4.98    1.42
 -23   4   0    2.91    1.68
 -23  -4   0    3.46    1.64
 -23   4   0    3.52    1.92
 -23   4  -1   13.30    2.12
 -23  -4   1   13.37    1.96
 -23   4  -1    9.84    1.85
 -23  -4   2   13.98    2.08
 -23   4  -2   14.35    1.82
 -23   4  -2   13.50    1.89
 -23  -4   2   18.08    1.85
 -23  -4   2   18.20    2.46
 -23  -4   3   16.81    1.78
 -23   4  -3   10.72    1.74
 -23  -4   3   16.92    2.14
 -23  -4   4    2.89    1.40
 -23   4  -4    3.08    1.34
 -23  -4   4    2.51    1.55
 -23  -4   4    1.54    1.82
 -23  -4   5    1.90    1.39
 -23  -4   5    0.76    1.70
 -23  -4   6    4.72    1.10
 -23  -4   6    4.42    1.46
 -23  -4   6    6.33    1.42
 -23  -4   7    2.31    0.94
 -23  -4   7    2.71    0.87
 -23   5   5    1.57    1.25
 -23   5   5    2.45    1.19
 -23   5   5    3.15    1.49
 -23   5   5    1.40    1.05
 -23   5   4    1.73    1.39
 -23   5   4   -0.49    1.64
 -23   5   4    1.84    1.37
 -23   5   4    1.17    1.17
 -23   5   3   18.34    2.32
 -23   5   3   17.86    2.24
 -23   5   3   21.25    2.06
 -23   5   3   16.62    1.61
 -23   5   2   47.78    3.35
 -23   5   2   49.15    3.32
 -23   5   1    9.19    1.88
 -23   5   1    9.85    2.02
 -23  -5   0   36.98    2.59
 -23   5   0   45.02    3.02
 -23   5   0   45.88    3.17
 -23   5  -1   11.65    1.95
 -23  -5   1    8.37    1.54
 -23   5  -1   11.93    1.84
 -23  -5   1   10.72    1.87
 -23  -5   2   34.62    3.30
 -23   5  -2   44.89    2.85
 -23  -5   2   39.62    2.66
 -23   5  -2   37.65    2.76
 -23   5  -3   17.47    1.84
 -23  -5   3   11.63    1.71
 -23  -5   3   17.91    2.08
 -23  -5   3   15.96    2.64
 -23  -5   4    1.78    1.75
 -23   5  -4    1.60    1.35
 -23  -5   4    1.55    1.48
 -23  -5   4    1.49    1.38
 -23  -5   5    0.24    1.64
 -23  -5   5    0.72    1.24
 -23  -5   6    7.08    1.37
 -23  -5   6    5.63    1.39
 -23  -5   6    5.89    1.09
 -23  -5   7    0.39    0.93
  23   5   7    1.63    0.67
 -23  -5   7    1.10    0.78
 -23  -5   7    1.35    0.81
 -23   6   5    2.32    1.20
 -23   6   4    1.17    1.51
 -23   6   4    0.66    1.95
 -23   6   4    0.09    1.30
 -23   6   3    3.00    1.56
 -23   6   3    2.89    1.25
 -23   6   3    2.44    1.34
 -23   6   3    4.56    1.79
 -23   6   3   -0.94    1.81
 -23   6   2   -0.42    1.63
 -23   6   1    2.63    1.55
 -23   6   1    2.35    1.90
 -23   6   0    3.28    1.81
 -23  -6   0    2.12    1.25
 -23   6   0    2.84    1.72
 -23   6  -1    4.15    1.73
 -23   6  -1    3.07    1.57
 -23  -6   1    0.82    1.35
 -23   6  -2    3.91    1.62
 -23   6  -2    2.18    1.50
 -23  -6   2    0.92    2.03
 -23  -6   2    3.41    1.64
 -23  -6   2    4.75    1.51
 -23  -6   3    3.46    1.72
 -23   6  -3    1.52    1.50
 -23  -6   3   -0.03    1.38
 -23  -6   4   -0.04    1.62
 -23   6  -4    1.82    1.38
 -23  -6   4    1.25    1.36
 -23  -6   4    1.78    1.36
  23   6   4    1.82    1.51
 -23  -6   5    1.97    1.60
 -23  -6   5    1.08    1.13
 -23   6  -5    3.11    1.17
 -23  -6   5    1.36    1.18
 -23  -6   6    1.22    1.22
 -23  -6   6    2.25    1.24
  23   6   6    3.48    0.92
 -23  -6   6    1.63    0.96
 -23  -6   7    3.27    0.90
 -23  -6   7    2.18    0.68
 -23   7   5    3.79    1.12
 -23   7   4    2.69    1.42
 -23   7   4    1.14    1.81
 -23   7   4    1.39    1.22
 -23   7   3   15.17    1.77
 -23   7   3   13.81    1.59
 -23   7   3   13.48    2.07
 -23   7   3   13.30    1.98
 -23   7   2    3.35    1.67
 -23   7   1    8.72    1.71
 -23   7   1    6.85    1.92
 -23   7   0   12.22    1.97
 -23  -7   0    8.29    1.34
 -23   7   0   11.91    1.91
 -23   7  -1    8.42    1.81
 -23   7  -1   10.44    1.82
 -23  -7   1    4.40    1.37
 -23   7  -2    5.91    1.68
 -23   7  -2    2.30    1.55
 -23  -7   2    1.71    2.06
 -23  -7   2    3.71    1.60
 -23  -7   2    1.43    1.42
 -23  -7   3   13.79    1.84
 -23   7  -3   10.80    1.77
 -23  -7   3   13.14    1.65
 -23  -7   4    3.89    1.49
 -23  -7   4    1.84    1.28
  23   7   4    0.52    1.49
 -23  -7   4    1.69    1.23
 -23   7  -4    4.09    1.41
  23   7   5    3.29    1.05
 -23  -7   5    0.03    1.49
 -23  -7   5    2.86    1.13
 -23   7  -5    3.22    1.20
 -23  -7   6    5.33    1.17
 -23  -7   6    7.20    1.21
  23   7   6    6.70    0.95
 -23  -7   7    2.18    0.74
 -23   8   4   32.01    2.54
 -23   8   4   26.30    1.94
 -23   8   3    7.17    1.47
 -23   8   3    9.44    1.73
 -23   8   3    5.43    1.75
 -23   8   3    5.83    1.25
 -23   8   2    3.67    1.36
 -23   8   2    2.65    1.22
 -23   8   2    5.39    1.63
 -23   8   1    3.13    1.54
 -23   8   1    4.91    1.88
 -23   8   0    7.03    1.85
 -23  -8   0    7.49    1.22
 -23   8  -1    3.87    1.71
 -23   8  -1    3.47    1.70
 -23  -8   1    1.44    1.20
 -23   8  -2    2.69    1.63
 -23   8  -2    7.26    1.69
 -23  -8   2    5.27    1.41
 -23  -8   3   11.02    1.54
  23   8   3    8.50    1.75
 -23   8  -3    7.15    1.58
 -23  -8   4   36.86    2.25
 -23   8  -4   28.59    2.36
  23   8   4   32.82    2.40
  23   8   5    3.82    1.00
 -23   8  -5    3.46    1.19
 -23  -8   5    4.58    1.39
 -23  -8   5    3.01    1.09
  23   8   6    1.26    0.77
 -23  -8   6    0.50    0.76
 -23  -8   6   -0.38    0.98
 -23  -8   6    1.43    0.90
 -23   9   4   12.10    1.91
 -23   9   3   10.54    1.70
 -23   9   3   11.63    1.93
 -23   9   3   12.94    2.08
 -23   9   2    3.07    1.48
 -23   9   1    1.45    1.46
 -23   9   1    1.84    1.68
 -23   9   1    5.98    1.83
 -23   9   0   11.89    1.64
 -23   9   0    9.79    1.95
 -23   9  -1    5.40    1.77
 -23  -9   1    3.18    1.15
 -23   9  -1    3.63    1.70
 -23   9  -2    7.91    1.70
 -23   9  -2    9.22    1.73
 -23   9  -3   11.00    1.64
 -23  -9   3    8.54    1.41
 -23   9  -4   10.87    1.57
 -23  -9   4    9.25    1.33
  23   9   4   10.36    1.61
  23   9   5    3.48    0.93
 -23  -9   5    1.09    0.98
  23   9   5    1.60    1.12
 -23  -9   5    2.82    1.17
 -23   9  -5    3.51    1.15
 -23  -9   6    2.01    0.80
 -23  10   4   11.74    1.74
 -23  10   3    4.23    1.77
 -23  10   3    1.55    1.61
 -23  10   2   -0.85    1.34
 -23  10   2    3.62    1.79
 -23  10   1    2.00    1.71
 -23  10   1    1.38    1.62
 -23  10   1    2.68    1.38
 -23  10   1    2.34    1.68
 -23  10   0    5.74    1.84
 -23  10   0    5.19    1.73
 -23  10   0    3.37    1.57
 -23  10   0    6.07    1.41
 -23  10  -1    3.64    1.70
 -23  10  -2    5.33    1.67
 -23  10  -2    2.84    1.57
 -23 -10   2    3.80    1.19
  23  10   2    1.93    1.62
 -23  10  -3    5.79    1.42
 -23 -10   3    7.23    1.26
 -23  10  -3    3.04    1.45
  23  10   4   12.16    1.62
 -23  10  -4   12.67    1.63
 -23 -10   4   13.93    1.57
 -23 -10   4   16.36    1.39
 -23  10  -5    1.85    1.11
  23  10   5    2.01    1.04
 -23 -10   5    2.29    0.90
 -23  11   4    3.52    1.41
 -23  11   3    8.80    1.68
 -23  11   3    6.90    1.74
 -23  11   2    5.78    1.72
 -23  11   1    4.01    1.68
 -23  11   1    8.51    1.83
 -23  11   1    3.07    1.58
  23  11  -1    4.93    1.43
 -23  11   1    4.10    1.32
 -23  11   0    1.09    1.56
 -23  11   0    2.39    1.66
 -23  11   0    1.18    1.54
  23  11   0    0.80    1.44
 -23  11   0    1.93    1.25
 -23  11  -1    8.09    1.80
  23  11   1    7.70    1.64
 -23  11  -1    7.57    1.53
 -23 -11   2    3.46    1.05
  23  11   2    4.90    1.55
 -23  11  -2    6.66    1.64
 -23  11  -2    4.92    1.57
 -23 -11   3    6.69    1.16
 -23  11  -3    9.64    1.40
 -23  11  -3    9.17    1.54
 -23  11  -4    3.91    1.29
 -23 -11   4    1.56    0.97
  23  11   4    1.80    1.24
 -23  11  -5    2.49    0.95
  23  11   5    1.80    0.92
 -23  12   3    0.61    1.36
 -23  12   3    3.44    1.49
 -23  12   2    8.93    1.75
  23  12  -1    3.12    1.28
 -23  12   1    2.62    1.62
 -23  12   1    0.08    1.39
 -23  12   0   19.97    1.97
 -23  12   0   19.77    2.03
  23  12   0   24.74    1.91
 -23  12   0   17.94    1.67
 -23  12   0   19.62    2.16
 -23  12  -1    2.08    1.44
 -23  12  -1    1.24    1.59
 -23  12  -1    2.01    1.45
 -23  12  -1    2.23    1.14
  23  12   1    1.98    1.42
  23  12   2    9.03    1.58
 -23  12  -2   10.27    1.68
 -23 -12   3    3.34    0.97
  23  12   3    4.52    1.35
 -23  12  -3    7.22    1.26
 -23  12  -3    4.41    1.35
 -23  12  -4    3.68    1.17
  23  12   4    1.17    1.10
 -23  12  -5    1.87    0.87
  23  12   5    1.77    0.78
 -23  13   3   -0.42    1.23
 -23  13   3    2.54    1.31
 -23  13   2    8.29    1.62
  23  13  -1    2.68    1.15
 -23  13   0    3.78    1.60
 -23  13   0    0.69    1.32
  23  13   0    0.77    1.24
 -23  13   0    3.46    1.48
 -23  13  -1    1.24    1.49
 -23  13  -1    2.50    1.36
 -23  13  -1    2.41    1.39
  23  13   1    1.20    1.32
 -23  13  -2    8.63    1.47
  23  13   2    6.39    1.39
 -23  13  -2    7.56    1.34
  23  13   3    1.32    1.20
 -23  13  -3    4.01    1.08
 -23  13  -3    3.97    1.22
 -23  13  -4    3.44    1.04
 -23  13  -5    1.21    0.63
 -23  14   2    5.54    1.36
 -23  14   2    1.78    1.30
 -23  14   0    1.36    1.43
 -23  14   0   -0.84    1.17
  23  14   0    1.75    1.08
 -23  14   0    1.41    1.38
 -23  14  -1    4.21    1.41
 -23  14  -1    3.09    1.22
  23  14   1    2.66    1.18
 -23  14  -1    3.40    1.31
 -23  14  -2    4.02    1.24
  23  14   2    3.05    1.18
 -23  14  -2    2.94    1.09
 -23  14  -2    2.72    1.17
  23  14   3    2.54    1.04
 -23  14  -4    1.75    0.81
 -23  15   2    0.43    1.09
 -23  15   2    2.80    1.09
  23  15   0    6.27    1.00
 -23  15   0   11.42    1.45
 -23  15  -1    3.82    1.25
 -23  15  -1    1.99    1.02
  23  15   1    3.00    0.99
 -23  15  -1    1.79    1.12
 -23  15  -2    4.45    1.08
  23  15   2    2.31    0.97
 -23  15  -2    2.56    0.92
 -23  15  -2    1.86    0.98
  23  15   3    1.82    0.84
 -23  15  -4    3.44    0.60
 -23  16   2    0.02    0.78
 -23  16   1    1.30    0.98
 -23  16   0    2.93    1.07
  23  16   1    0.40    0.74
 -23  16  -1    1.99    0.97
  23  16   2    0.72    0.72
 -23  16  -2   -0.02    0.75
 -23  16  -2    1.70    0.78
 -23  16  -3   -0.25    0.53
 -23  17   1   -0.24    0.71
 -23  17   0    0.35    0.74
 -23  17  -1    0.70    0.67
 -24   0   0   -2.37    1.51
 -24   0   0    1.89    1.95
 -24   0   1   -0.98    1.47
 -24   0   1    0.31    1.65
 -24   0   1    2.79    2.12
 -24   0   2    2.22    1.84
 -24   0   2    3.73    2.28
 -24   0   3    0.16    1.36
 -24   0   3   -0.48    1.83
 -24   0   3    1.66    1.96
 -24   0   3    2.28    2.09
 -24   0   4    2.07    1.56
 -24   0   4    3.59    1.94
 -24   0   4    1.04    1.27
 -24   0   5    7.18    1.59
 -24   0   5    8.93    1.29
 -24   0   5    6.92    1.70
 -24   0   5    7.62    1.87
 -24   0   6    5.38    1.27
 -24   0   6    4.39    1.24
 -24   0   6    5.82    1.25
 -24   0   7    3.34    0.83
 -24   1   7    0.66    0.75
 -24   1   7    1.19    0.73
 -24   1   6    2.75    1.18
 -24   1   6    6.05    1.17
 -24   1   6    6.19    1.30
 -24   1   6    4.73    1.26
 -24   1   5    1.76    1.11
 -24   1   5    2.94    1.56
 -24   1   5    1.80    1.34
 -24   1   5    1.77    1.46
 -24   1   4    2.63    1.31
 -24   1   4    3.99    1.92
 -24   1   4    5.23    1.61
 -24   1   3    0.19    1.29
 -24   1   3    0.48    1.82
 -24   1   3   -0.75    1.89
 -24   1   3    0.75    2.12
 -24   1   2    4.53    1.78
 -24   1   2    4.13    2.22
 -24   1   1    4.15    1.72
 -24   1   1    4.51    2.12
 -24  -1  -1    6.16    1.55
 -24  -1   0    2.16    1.54
 -24   1   0    1.90    1.48
 -24   1   0    4.63    1.98
 -24  -1   1    1.71    1.41
 -24   1  -1    4.02    1.84
 -24  -1   1    6.32    2.24
 -24  -1   1    6.25    1.76
 -24  -1   2    4.39    1.51
 -24   1  -2    3.47    1.72
 -24  -1   2    4.21    1.84
 -24  -1   2    6.38    2.37
 -24  -1   3    0.22    1.80
 -24  -1   3    1.01    1.93
 -24  -1   4    3.90    1.63
 -24  -1   4    1.37    1.86
 -24  -1   4    1.09    1.31
 -24  -1   5    0.65    1.43
 -24  -1   5    1.15    1.15
 -24  -1   5    3.00    1.82
 -24  -1   6    2.14    1.29
 -24  -1   6    3.55    0.98
 -24  -1   6    2.60    1.19
 -24  -1   7    0.33    0.83
 -24  -1   7    1.65    0.80
 -24   2   7    0.24    0.67
 -24   2   6    1.61    1.06
 -24   2   6    1.17    1.16
 -24   2   6    2.03    1.14
 -24   2   6    2.48    1.04
 -24   2   5    0.72    1.30
 -24   2   5    0.61    1.29
 -24   2   5    1.39    1.46
 -24   2   5   -0.30    1.38
 -24   2   4    4.55    2.06
 -24   2   4    2.98    1.32
 -24   2   3    1.17    1.88
 -24   2   3   -2.03    2.16
 -24   2   3   -0.38    1.33
 -24   2   2   11.60    2.02
 -24   2   2   13.59    2.43
 -24   2   1    7.10    1.79
 -24  -2  -1    8.20    1.66
 -24   2   1    6.60    2.11
 -24   2   0    4.72    1.95
 -24  -2   0    0.46    1.56
 -24   2   0    1.98    1.54
 -24   2   0   -0.99    1.68
 -24  -2   1    7.66    2.17
 -24  -2   1    7.51    1.82
 -24  -2   1    7.21    1.59
 -24   2  -1    5.69    1.82
 -24  -2   2   15.90    1.76
 -24   2  -2   15.23    2.03
 -24  -2   2   15.33    2.19
 -24  -2   2   15.84    2.50
 -24   2  -3    0.77    1.41
 -24  -2   3   -0.69    1.82
 -24  -2   3   -0.20    1.38
 -24  -2   4    4.91    1.92
 -24  -2   5   -1.95    1.41
 -24  -2   5    1.41    1.66
 -24  -2   5    0.12    1.71
 -24  -2   5    0.43    1.17
 -24  -2   6   -0.78    1.33
 -24  -2   6    0.85    1.12
 -24  -2   6    0.26    0.95
 -24  -2   6    0.40    1.24
 -24  -2   7    1.21    0.86
 -24  -2   7    0.84    0.87
 -24  -2   7    0.34    0.79
 -24   3   7    3.32    0.66
 -24   3   6    0.78    1.06
 -24   3   6    1.56    0.95
 -24   3   5    5.13    1.68
 -24   3   5    4.43    1.42
 -24   3   5    5.63    1.23
 -24   3   4    5.99    2.11
 -24   3   4    5.99    1.39
 -24   3   4    7.82    1.87
 -24   3   3    4.38    2.16
 -24   3   3    3.80    1.79
 -24   3   2   23.21    2.50
 -24   3   2   23.90    2.36
 -24   3   1    1.80    2.02
 -24  -3  -1    6.16    1.65
 -24   3   1    6.18    1.72
 -24   3   1    7.74    2.10
 -24  -3   0    8.75    1.80
 -24   3   0    7.00    2.12
 -24   3   0   10.16    1.71
 -24   3   0    4.73    1.82
 -24  -3   1    5.60    1.79
 -24   3  -1    3.20    1.77
 -24  -3   1    1.78    1.41
 -24   3  -1    5.93    1.74
 -24   3  -2   20.90    2.03
 -24  -3   2   21.37    2.27
 -24  -3   3    2.36    1.35
 -24   3  -3    2.50    1.49
 -24  -3   3    6.23    1.86
 -24  -3   4    3.81    1.57
 -24  -3   4    4.03    1.90
 -24  -3   5    3.85    1.25
 -24  -3   5    3.50    1.40
 -24  -3   5    6.28    1.73
 -24  -3   5    5.38    1.73
 -24  -3   6    0.85    0.96
 -24  -3   6    1.15    1.24
 -24  -3   6    2.29    1.34
 -24  -3   7    2.08    0.79
 -24  -3   7    2.56    0.85
 -24   4   6    2.25    0.87
 -24   4   5    1.43    1.49
 -24   4   5    2.82    1.10
 -24   4   5    0.22    1.22
 -24   4   4    1.30    1.22
 -24   4   4    2.02    1.44
 -24   4   4   -0.58    1.65
 -24   4   4    1.58    1.39
 -24   4   3    9.61    2.22
 -24   4   3    9.68    1.86
 -24   4   2   13.16    2.34
 -24   4   2   14.61    2.30
 -24   4   1   14.82    2.04
 -24   4   1   20.10    2.44
 -24   4   0    0.45    1.63
 -24  -4   0    2.35    1.67
 -24   4   0    1.82    1.95
 -24   4   0    0.62    1.45
 -24  -4   1   24.14    2.01
 -24  -4   1   21.10    2.24
 -24   4  -1   18.32    2.20
 -24   4  -1   18.74    2.32
 -24  -4   2   18.61    1.94
 -24   4  -2   14.07    1.95
 -24   4  -2   15.83    1.90
 -24  -4   2   17.16    2.24
 -24  -4   3   11.98    1.69
 -24   4  -3   12.41    1.75
 -24  -4   3   11.52    2.01
 -24  -4   4    0.49    1.35
 -24   4  -4    2.25    1.30
 -24  -4   4    1.31    1.49
 -24  -4   4    2.95    1.79
 -24  -4   5    2.24    1.29
 -24  -4   5    1.49    1.63
 -24  -4   6    1.43    0.94
 -24  -4   6    1.52    1.22
 -24  -4   6    2.14    1.30
 -24  -4   7    2.49    0.75
 -24  -4   7    2.48    0.79
 -24   5   5    0.64    1.19
 -24   5   4    4.42    1.63
 -24   5   4    3.31    1.36
 -24   5   4    4.01    1.39
 -24   5   3   14.57    2.08
 -24   5   3   11.18    2.25
 -24   5   3   13.78    1.94
 -24   5   2   27.34    2.67
 -24   5   1   48.88    3.34
 -24   5   1   44.28    3.37
 -24   5   0    2.15    1.64
 -24   5   0    2.57    1.88
 -24   5   0   -0.63    1.50
 -24  -5   1   34.89    2.67
 -24  -5   1   44.08    2.99
 -24   5  -1   45.61    3.06
 -24   5  -1   44.02    2.97
 -24  -5   2   21.84    2.03
 -24   5  -2   27.55    2.27
 -24   5  -2   22.26    2.14
 -24   5  -3   14.53    1.76
 -24  -5   3   14.19    1.98
 -24  -5   4    3.38    1.33
  24   5   4    1.63    1.48
 -24   5  -4    3.88    1.36
 -24  -5   4    2.53    1.42
 -24  -5   4    6.04    1.73
 -24  -5   5    0.56    1.15
 -24  -5   5    1.12    1.57
 -24  -5   6    2.07    0.92
 -24  -5   6    2.47    1.18
 -24  -5   6    2.75    1.24
 -24  -5   7    1.90    0.65
 -24   6   5    2.87    1.12
 -24   6   4    4.45    1.49
 -24   6   4    4.17    1.32
 -24   6   3    3.32    1.57
 -24   6   3    0.45    1.26
 -24   6   3    0.14    1.70
 -24   6   3    0.42    1.94
 -24   6   2    4.07    2.02
 -24   6   2    0.19    1.69
 -24   6   1    2.89    1.89
 -24   6   1    3.33    1.64
 -24   6   0    3.50    1.78
 -24   6   0    7.49    1.95
 -24   6  -1    5.61    1.83
 -24  -6   1    3.05    1.42
 -24   6  -1    4.92    1.68
 -24   6  -2    4.23    1.59
 -24  -6   2    4.93    1.71
 -24   6  -2    2.81    1.53
 -24  -6   2    3.90    1.48
 -24  -6   3    3.36    1.70
 -24   6  -3    1.32    1.45
 -24  -6   3    1.44    1.36
 -24  -6   4    4.67    1.65
 -24   6  -4    6.37    1.44
 -24  -6   4    8.18    1.41
  24   6   4    6.27    1.53
 -24  -6   4    4.87    1.37
 -24  -6   5    1.95    1.51
 -24  -6   5    1.51    1.06
 -24   6  -5    1.96    1.07
 -24  -6   5    2.22    1.14
 -24  -6   6    0.35    1.10
 -24  -6   6    0.67    1.09
 -24  -6   6    1.04    0.85
 -24  -6   7    3.02    0.67
 -24   7   4    8.84    1.35
 -24   7   4   10.59    1.52
 -24   7   4    9.68    1.89
 -24   7   3   10.07    1.44
 -24   7   3    7.23    1.88
 -24   7   3    7.15    1.80
 -24   7   3    8.23    1.58
 -24   7   2    2.72    1.92
 -24   7   2    2.56    1.65
 -24   7   1    3.00    1.89
 -24   7   1    2.52    1.58
 -24   7   0    2.86    1.48
 -24   7   0    2.66    1.67
 -24   7   0    1.53    1.77
 -24   7  -1    2.17    1.78
 -24  -7   1    1.86    1.31
 -24   7  -1    4.67    1.68
 -24  -7   2    2.51    1.57
 -24   7  -2    4.33    1.64
 -24  -7   2    1.79    1.38
 -24   7  -2    5.10    1.66
 -24  -7   3    7.98    1.48
 -24  -7   3   10.40    1.72
 -24   7  -3   10.62    1.72
 -24  -7   4    8.39    1.40
  24   7   4   11.61    1.64
 -24  -7   4    8.10    1.33
 -24   7  -4   11.95    1.58
 -24  -7   5    1.79    1.06
 -24  -7   5    2.08    1.39
 -24   7  -5    2.42    1.10
 -24  -7   6    4.80    1.06
 -24  -7   6    4.80    1.02
 -24   8   4    3.37    1.08
 -24   8   4    3.91    1.82
 -24   8   3    3.26    1.17
 -24   8   3   -0.98    1.68
 -24   8   3    3.09    1.55
 -24   8   2    8.52    1.30
 -24   8   2    7.08    1.73
 -24   8   2    6.37    1.44
 -24   8   1    1.42    1.53
 -24   8   1   -2.81    1.81
 -24   8   1    2.78    1.73
 -24   8   0    4.15    1.50
 -24   8   0    4.24    1.82
 -24   8   0    3.05    1.77
 -24   8  -1    3.65    1.74
 -24  -8   1    0.57    1.22
 -24   8  -1    0.52    1.62
 -24   8  -2   11.60    1.81
 -24   8  -2    8.62    1.74
 -24  -8   2    9.95    1.53
 -24   8  -3    4.39    1.49
 -24  -8   3    3.54    1.34
  24   8   3   -0.15    1.53
 -24   8  -4    5.37    1.43
 -24  -8   4    5.08    1.22
  24   8   4    4.06    1.46
 -24   8  -5    9.00    1.26
 -24  -8   5    9.80    1.43
 -24  -8   5   10.32    1.18
 -24  -8   6    3.59    0.88
 -24  -8   6    1.79    0.76
 -24   9   4   14.52    1.89
 -24   9   3   -0.07    1.39
 -24   9   3   -2.37    1.63
 -24   9   3    0.04    1.80
 -24   9   2   -2.85    1.47
 -24   9   1    3.21    1.48
 -24   9   1   -0.94    1.65
 -24   9   1    0.93    1.67
 -24   9   0    3.71    1.46
 -24   9   0    3.87    1.77
 -24   9  -1    2.31    1.68
 -24  -9   1    0.32    1.12
 -24   9  -1    2.22    1.64
 -24   9  -2    3.62    1.62
 -24   9  -2    2.20    1.58
 -24  -9   2    0.21    1.19
 -24   9  -3    1.56    1.43
 -24  -9   3    1.60    1.22
 -24  -9   4   13.13    1.37
  24   9   4   12.31    1.63
 -24   9  -4   14.81    1.61
 -24  -9   5    2.48    0.90
 -24   9  -5    3.64    1.04
 -24  -9   5    4.27    1.07
 -24  -9   6    1.52    0.63
 -24  10   4    4.04    1.49
 -24  10   3    3.54    1.62
 -24  10   3    6.54    1.80
 -24  10   2    0.27    1.31
 -24  10   1    0.19    1.62
 -24  10   1    5.77    1.73
 -24  10   1    3.89    1.43
 -24  10   0    5.53    1.73
 -24  10   0    5.08    1.76
 -24  10   0    4.26    1.41
 -24  10  -1    6.30    1.76
 -24  10  -1    6.21    1.77
 -24  10  -2    3.60    1.57
  24  10   2    3.15    1.55
 -24 -10   2    3.22    1.13
 -24  10  -2    2.80    1.57
 -24 -10   3    6.43    1.21
 -24  10  -3    8.36    1.57
 -24 -10   4    5.50    1.07
  24  10   4    3.29    1.29
 -24  10  -4    4.79    1.32
 -24 -10   4    4.16    1.26
 -24  10  -5    2.52    1.01
 -24  11   4    2.44    1.29
 -24  11   3    1.88    1.49
 -24  11   3    4.14    1.54
 -24  11   2    4.75    1.63
 -24  11   1    2.11    1.52
 -24  11   1    7.71    1.80
 -24  11   1    3.67    1.31
  24  11  -1    4.41    1.37
 -24  11   0   21.42    2.07
 -24  11   0   17.86    1.72
 -24  11   0   20.02    2.11
  24  11   0   14.62    1.80
 -24  11   0   18.57    1.84
 -24  11  -1    7.47    1.71
  24  11   1    2.21    1.53
 -24  11  -1    5.21    1.29
 -24  11  -2    5.29    1.53
  24  11   2    2.68    1.49
 -24  11  -2    4.89    1.51
 -24 -11   3    2.15    0.98
 -24  11  -3    4.38    1.40
 -24 -11   4    0.33    0.87
  24  11   4    0.38    1.13
 -24  11  -4    2.61    1.17
 -24  11  -5    4.28    0.87
 -24 -11   5    2.44    0.78
 -24  12   3    3.48    1.35
 -24  12   3    6.05    1.47
 -24  12   2    7.19    1.61
 -24  12   2    7.78    1.65
  24  12  -1    2.35    1.24
 -24  12   1    3.54    1.64
 -24  12   0    8.83    1.72
 -24  12   0    7.80    1.59
  24  12   0   10.17    1.49
 -24  12   0    7.78    1.52
 -24  12  -1    5.47    1.60
  24  12   1    3.12    1.43
 -24  12  -1    4.13    1.16
  24  12   2    9.05    1.51
 -24  12  -2    9.19    1.56
 -24  12  -2    6.34    1.50
 -24  12  -3    6.03    1.31
  24  12   3    5.59    1.33
 -24  12  -4    2.27    1.07
  24  12   4    3.49    1.05
 -24  12  -5    0.27    0.65
 -24  13   3    2.23    1.19
 -24  13   2   10.39    1.59
 -24  13   2   13.86    1.65
  24  13  -1    3.45    1.10
 -24  13   1    7.33    1.56
 -24  13   0    6.30    1.58
 -24  13   0    1.38    1.29
  24  13   0    4.23    1.23
 -24  13   0    3.05    1.35
 -24  13  -1    7.72    1.51
  24  13   1    4.63    1.32
 -24  13  -1    5.34    1.26
 -24  13  -1    4.69    1.36
 -24  13  -2   12.42    1.50
  24  13   2    9.32    1.40
 -24  13  -3    1.23    1.11
  24  13   3    0.60    1.09
 -24  13  -4    3.53    0.90
 -24  14   2   -0.03    1.16
 -24  14   2    1.87    1.18
  24  14   0    1.88    1.02
 -24  14   0    2.53    1.36
 -24  14   0    0.41    1.09
 -24  14  -1    2.25    1.31
 -24  14  -1    0.17    1.08
  24  14   1    2.47    1.07
 -24  14  -1    1.88    1.06
 -24  14  -2    2.24    1.11
 -24  14  -2    2.27    1.10
  24  14   2    1.54    1.07
  24  14   3    1.64    0.93
 -24  14  -3    1.01    0.96
 -24  14  -4    3.94    0.71
 -24  15   2   -0.70    0.96
 -24  15   0    2.15    1.19
 -24  15  -1    0.91    0.89
 -24  15  -1    1.26    1.04
  24  15   1    0.74    0.87
  24  15   2    0.93    0.83
 -24  15  -2    0.22    0.84
 -24  15  -2   -0.10    0.83
  24  15   3    1.12    0.70
 -24  16   1    1.33    0.85
 -24  16   0    0.59    0.95
 -24  16  -1    0.62    0.85
 -24  17   0    0.01    0.58
 -25   0   0    2.58    1.91
 -25   0   0    1.02    1.55
 -25   0   1    0.65    1.68
 -25   0   1    4.53    2.17
 -25   0  -1    2.38    1.46
 -25   0   2   -0.30    1.83
 -25   0   2    1.42    2.21
 -25   0   3    0.42    2.20
 -25   0   3    2.38    1.88
 -25   0   3    1.99    1.87
 -25   0   4    0.09    1.26
 -25   0   4    1.23    1.53
 -25   0   4    2.13    1.87
 -25   0   5   -1.32    1.12
 -25   0   5    0.51    1.37
 -25   0   5    1.47    1.52
 -25   0   5    1.97    1.34
 -25   0   5    0.77    1.66
 -25   0   6    2.48    1.10
 -25   0   6    0.82    1.18
 -25   0   6    0.90    1.06
 -25   0   6    1.35    1.07
 -25   0   7    0.57    0.65
 -25   1   7    1.36    0.61
 -25   1   6    2.49    1.01
 -25   1   6    2.49    1.09
 -25   1   6    3.54    1.15
 -25   1   5    2.61    1.12
 -25   1   5    2.88    1.32
 -25   1   5    4.79    1.40
 -25   1   5    3.13    1.32
 -25   1   5    4.99    1.52
 -25   1   4    0.12    1.25
 -25   1   4    2.15    1.83
 -25   1   4    2.47    1.50
 -25   1   3    1.07    1.38
 -25   1   3    1.22    1.87
 -25   1   3   -0.28    2.16
 -25   1   3    3.30    1.81
 -25   1   2   15.64    2.47
 -25   1   2   19.29    2.23
 -25   1   1    8.15    1.81
 -25   1   1    7.14    2.23
 -25  -1  -1    5.53    1.59
 -25  -1   0   -1.29    1.60
 -25   1   0    2.27    1.56
 -25   1   0   -0.81    1.88
 -25  -1   1    2.26    1.44
 -25  -1   1    3.36    1.74
 -25  -1   2   22.51    2.62
 -25   1  -2   15.97    2.04
 -25  -1   2   20.41    2.25
 -25  -1   3    0.05    1.84
 -25  -1   3    0.34    1.79
 -25  -1   4    1.36    1.30
 -25  -1   4    1.61    1.54
 -25  -1   4   -0.13    1.79
 -25  -1   5    3.50    1.17
 -25  -1   5    2.29    1.37
 -25  -1   5    6.36    1.70
 -25  -1   6    1.70    1.08
 -25  -1   6    2.10    1.16
 -25  -1   7    0.53    0.66
 -25   2   7    1.59    0.57
 -25   2   6    2.63    1.05
 -25   2   6    2.98    0.94
 -25   2   5    1.84    1.32
 -25   2   5    0.99    1.35
 -25   2   5    1.27    1.20
 -25   2   3    1.63    1.92
 -25   2   3    3.31    2.04
 -25   2   2    7.51    1.92
 -25   2   2    6.17    2.21
 -25  -2  -2    6.94    1.54
 -25   2   1    3.59    1.76
 -25  -2  -1    6.23    1.66
 -25   2   1    2.70    2.09
 -25   2   0    3.02    1.95
 -25  -2   0    3.16    1.68
 -25   2   0    0.97    1.54
 -25  -2   1    1.39    1.56
 -25  -2   1    5.64    2.13
 -25  -2   1    6.92    1.84
 -25   2  -1    3.73    1.83
 -25  -2   2    4.01    1.57
 -25  -2   2    6.71    1.94
 -25   2  -2    5.47    1.74
 -25  -2   3    2.42    1.40
 -25   2  -3    1.15    1.40
 -25  -2   3    4.72    1.86
 -25  -2   4    4.66    1.63
 -25  -2   4    7.33    1.87
 -25  -2   5    0.10    1.13
 -25  -2   5    1.69    1.59
 -25  -2   5    2.57    1.63
 -25  -2   5    2.75    1.36
 -25  -2   6    2.29    0.94
 -25  -2   6    2.06    1.26
 -25  -2   6    5.36    1.25
 -25  -2   7    1.01    0.68
 -25  -2   7    0.05    0.70
 -25  -2   7    1.23    0.66
 -25   3   6    0.61    0.94
 -25   3   6    1.33    0.85
 -25   3   5    2.16    1.29
 -25   3   5    1.35    1.49
 -25   3   5    1.66    1.09
 -25   3   4   13.98    1.97
 -25   3   4   11.49    1.71
 -25   3   4   13.21    1.49
 -25   3   4    8.77    2.20
 -25   3   3    6.85    1.83
 -25   3   3    6.70    2.26
 -25   3   2    2.87    1.84
 -25   3   2    3.89    2.13
 -25  -3  -1   38.80    2.82
 -25   3   1   37.44    2.92
 -25   3   1   45.65    3.15
 -25   3   0    2.56    1.94
 -25  -3   0    6.12    1.75
 -25   3   0    6.39    1.64
 -25   3   0    3.79    1.81
 -25  -3   1   35.89    2.64
 -25  -3   1   39.98    2.95
 -25   3  -1   41.73    2.95
 -25  -3   2    1.40    1.49
 -25  -3   2    4.62    1.90
 -25   3  -2    3.10    1.61
 -25  -3   3    4.46    1.43
 -25   3  -3    9.39    1.56
 -25  -3   3    4.52    1.86
 -25  -3   4    5.52    1.54
 -25  -3   4   11.87    1.94
 -25  -3   5    1.48    1.15
 -25  -3   5    1.48    1.29
 -25  -3   5    2.05    1.60
 -25  -3   6   -0.13    0.88
 -25  -3   6    0.49    1.18
 -25  -3   6   -0.46    1.12
 -25  -3   7    2.53    0.65
 -25  -3   7    1.70    0.66
 -25   4   5   -1.03    1.42
 -25   4   5   -0.66    1.16
 -25   4   4    1.14    1.62
 -25   4   4    2.10    1.37
 -25   4   4    0.88    1.34
 -25   4   3    1.69    2.07
 -25   4   3   -0.16    1.67
 -25   4   2    8.76    2.13
 -25   4   1    2.81    2.07
 -25   4   1    8.44    2.11
 -25   4   1    4.10    1.69
 -25   4   0    1.79    1.74
 -25  -4   0    5.00    1.76
 -25   4   0    1.09    1.89
 -25   4   0    4.48    1.65
 -25  -4   1    9.59    1.62
 -25   4  -1    5.65    1.77
 -25  -4   1    3.95    1.82
 -25   4  -1    4.12    1.84
 -25  -4   2   14.48    1.80
 -25   4  -2   10.31    1.87
 -25  -4   3    1.84    1.80
 -25  -4   3    2.61    1.45
 -25   4  -3    3.42    1.49
 -25  -4   4    3.01    1.74
 -25  -4   4    0.77    1.26
 -25   4  -4    2.26    1.26
 -25  -4   4    1.20    1.41
 -25  -4   5    1.73    1.52
 -25  -4   5    0.28    1.18
 -25  -4   6    4.62    1.17
 -25  -4   6    5.44    0.96
 -25  -4   6    4.41    1.20
 -25  -4   7    1.92    0.56
 -25   5   5    2.62    1.15
 -25   5   4    3.69    1.56
 -25   5   4    1.36    1.24
 -25   5   3    7.80    1.90
 -25   5   3    5.57    2.01
 -25   5   3    7.28    1.68
 -25   5   3    6.24    1.45
 -25   5   2   35.06    2.88
 -25   5   2   33.34    2.81
 -25   5   1   11.21    2.15
 -25   5   0    1.67    1.68
 -25   5   0    0.96    1.80
 -25   5   0    4.68    1.61
 -25  -5   1   11.51    1.70
 -25   5  -1   13.03    1.85
 -25  -5   1   12.37    2.00
 -25   5  -1   13.44    2.02
 -25   5  -2   30.07    2.42
 -25  -5   2   26.57    2.25
 -25   5  -2   27.30    2.31
 -25  -5   3    8.43    1.85
 -25  -5   3    4.29    1.47
 -25   5  -3    7.52    1.56
 -25  -5   4    5.90    1.70
 -25  -5   4    1.98    1.30
  25   5   4    1.72    1.40
 -25   5  -4    4.29    1.28
 -25  -5   4    5.07    1.41
 -25  -5   5    2.85    1.53
 -25  -5   5    1.73    1.11
 -25  -5   6    2.73    1.08
 -25  -5   6    2.15    0.85
 -25  -5   6    3.14    1.10
 -25   6   5    2.61    1.05
 -25   6   4    3.78    1.46
 -25   6   4    3.59    1.22
 -25   6   3    1.29    1.70
 -25   6   3    3.20    2.00
 -25   6   3    0.91    1.51
 -25   6   3    2.28    1.28
 -25   6   2    5.56    1.96
 -25   6   2    6.94    1.80
 -25   6   1    0.10    1.86
 -25   6   0   -2.00    1.86
 -25   6   0   -1.92    1.66
 -25   6  -1    1.05    1.69
 -25  -6   1    2.19    1.38
 -25   6  -1    3.85    1.70
 -25  -6   2    9.33    1.60
 -25   6  -2    7.34    1.66
 -25  -6   2    9.08    1.81
 -25   6  -2    6.22    1.71
 -25  -6   3    2.05    1.65
 -25  -6   3    3.34    1.44
 -25   6  -3    2.16    1.45
 -25  -6   4    4.01    1.52
  25   6   4    2.94    1.43
 -25  -6   4    3.21    1.28
 -25   6  -4    2.96    1.32
 -25  -6   4    4.77    1.30
 -25  -6   5    3.29    1.41
 -25  -6   5    2.97    1.06
 -25  -6   5    1.69    0.96
 -25  -6   6    2.58    1.00
 -25  -6   6    2.09    0.97
 -25   7   4   16.11    2.00
 -25   7   4   15.08    1.46
 -25   7   3    7.97    1.76
 -25   7   3    8.84    1.53
 -25   7   3    5.71    1.29
 -25   7   2    3.14    1.93
 -25   7   2    2.39    1.64
 -25   7   2    2.05    1.41
 -25   7   1   -0.87    1.54
 -25   7   1    0.15    1.83
 -25   7   0   -0.47    1.76
 -25   7   0    2.94    1.59
 -25   7   0   -2.76    1.74
 -25   7  -1    1.88    1.69
 -25  -7   1   -0.24    1.32
 -25   7  -1   -1.09    1.52
 -25  -7   2    1.49    1.36
 -25   7  -2    1.72    1.54
 -25   7  -2    2.94    1.54
 -25  -7   2    2.99    1.57
 -25  -7   3    6.85    1.44
 -25   7  -3   10.37    1.65
 -25  -7   3    9.52    1.66
  25   7   4   15.65    1.66
 -25  -7   4   14.46    1.45
 -25   7  -4   15.09    1.64
 -25  -7   5    5.73    1.35
 -25   7  -5    6.21    1.08
 -25  -7   5    6.09    1.04
 -25  -7   6    1.39    0.81
 -25  -7   6    0.71    0.83
 -25   8   4   10.16    1.84
 -25   8   3    3.36    1.54
 -25   8   2    5.96    2.02
 -25   8   2    4.11    1.63
 -25   8   2    4.26    1.35
 -25   8   1    3.57    1.58
 -25   8   1    3.15    1.79
 -25   8   0    2.54    1.52
 -25   8   0    0.35    1.67
 -25   8   0    0.96    1.77
 -25   8  -1    0.47    1.60
 -25   8  -1    3.05    1.70
 -25  -8   1    2.02    1.22
 -25  -8   2    6.58    1.37
 -25   8  -2    8.20    1.62
 -25   8  -2    6.03    1.66
  25   8   3    2.44    1.52
 -25  -8   3    3.02    1.28
 -25   8  -3    4.64    1.47
 -25  -8   3    2.68    1.19
  25   8   4   10.30    1.52
 -25  -8   4    9.80    1.29
 -25   8  -4   10.95    1.53
 -25   8  -5    8.97    1.17
 -25  -8   5   11.57    1.10
 -25  -8   5    9.46    1.29
 -25  -8   6    2.34    0.70
 -25   9   4    7.41    1.65
 -25   9   3   -0.07    1.36
 -25   9   2    1.56    1.84
 -25   9   2   -1.52    1.44
 -25   9   1    1.50    1.43
 -25   9   1    1.81    1.73
 -25   9   0    3.91    1.47
 -25   9   0    4.21    1.80
 -25   9  -1    4.71    1.69
 -25   9  -1    1.47    1.60
 -25  -9   1    2.25    1.09
 -25   9  -2    3.38    1.57
 -25   9  -2    4.48    1.54
 -25  -9   2    0.68    1.15
 -25   9  -3    1.43    1.39
 -25  -9   3    0.31    1.10
 -25  -9   4    4.05    1.33
 -25  -9   4    3.98    1.07
  25   9   4    5.54    1.32
 -25   9  -4    5.63    1.34
 -25   9  -5    1.75    0.91
 -25  -9   5    0.88    0.92
 -25  10   4   11.54    1.56
 -25  10   3    7.99    1.73
 -25  10   2    6.38    1.38
 -25  10   1    0.17    1.35
 -25  10   1    1.98    1.68
 -25  10   0    1.63    1.34
 -25  10   0   -0.08    1.63
 -25  10  -1    3.22    1.63
 -25  10  -1    0.79    1.53
 -25  10  -1    1.57    1.30
  25  10   2    3.00    1.50
 -25 -10   2    5.55    1.12
 -25  10  -2    3.14    1.44
 -25  10  -2    3.62    1.47
 -25 -10   3    8.13    1.15
 -25  10  -3    6.28    1.46
  25  10   4   10.16    1.35
 -25  10  -4    8.95    1.35
 -25 -10   4   10.27    1.27
 -25 -10   4    9.10    1.10
 -25  10  -5    1.47    0.80
 -25 -10   5    1.86    0.85
 -25  11   4    7.19    1.26
 -25  11   3    0.42    1.43
  25  11  -1    3.55    1.32
 -25  11   1    6.33    1.33
 -25  11   1    5.86    1.63
 -25  11   0    5.58    1.65
  25  11   0    6.06    1.48
 -25  11   0    3.93    1.57
 -25  11   0    4.56    1.31
  25  11   1    6.78    1.53
 -25  11  -1    7.60    1.69
 -25  11  -1    6.83    1.30
  25  11   2    4.36    1.44
 -25  11  -2    7.87    1.50
 -25  11  -2    4.94    1.44
 -25 -11   3    1.86    0.93
 -25  11  -3    4.46    1.30
  25  11   4    6.47    1.17
 -25  11  -4   11.15    1.26
 -25  11  -5    1.46    0.63
 -25  12   3    1.87    1.31
 -25  12   2    1.99    1.43
  25  12  -1    3.42    1.20
 -25  12   1    4.46    1.55
 -25  12   0    0.66    1.38
  25  12   0    3.88    1.28
 -25  12   0    4.17    1.57
  25  12   1    3.32    1.36
 -25  12  -1    2.60    1.44
 -25  12  -1    3.83    1.14
  25  12   2    2.90    1.29
 -25  12  -2    4.85    1.09
 -25  12  -2    3.19    1.31
 -25  12  -2    3.61    1.31
  25  12   3    1.31    1.13
 -25  12  -3    1.38    1.15
  25  12   4    2.76    0.91
 -25  12  -4    2.43    0.97
 -25  13   3    1.32    1.05
 -25  13   2    1.68    1.28
 -25  13   2    3.77    1.34
 -25  13   1    2.53    1.40
 -25  13   0   10.10    1.53
  25  13   0    7.34    1.23
 -25  13  -1    1.39    1.24
  25  13   1    1.96    1.19
 -25  13  -1    4.24    1.37
 -25  13  -2    3.90    1.18
  25  13   2    3.03    1.17
 -25  13  -3    1.82    1.02
  25  13   3    1.68    1.00
 -25  13  -4    0.36    0.74
 -25  14   2   -0.09    1.07
 -25  14   2    3.51    1.13
 -25  14   0    2.92    1.26
  25  14   0    2.58    0.95
 -25  14  -1    6.88    1.23
  25  14   1    6.30    1.07
 -25  14  -2    1.20    0.93
  25  14   2    2.55    0.95
 -25  14  -3    1.51    0.80
  25  14   3    1.36    0.78
 -25  15   1    2.29    1.00
 -25  15   0   -0.13    1.03
 -25  15  -1    2.72    0.93
  25  15   1    1.36    0.75
 -25  15  -2   -0.42    0.68
  25  15   2    1.03    0.71
 -25  16   1    1.71    0.63
 -25  16   0   -0.59    0.73
 -26   0   0    5.28    1.96
 -26   0   0    5.70    1.71
 -26   0   1    9.30    1.96
 -26   0  -1    8.81    1.69
 -26   0   2    0.74    2.14
 -26   0   2    2.80    1.79
 -26   0   3    4.68    1.83
 -26   0   3    1.70    1.86
 -26   0   4   10.76    1.68
 -26   0   4   11.23    1.51
 -26   0   4   10.74    1.97
 -26   0   5    5.81    1.37
 -26   0   5    5.55    1.18
 -26   0   5    4.83    1.48
 -26   0   5    5.82    1.33
 -26   0   5    6.58    1.61
 -26   0   6    4.03    1.10
 -26   0   6    3.41    0.99
 -26   0   7    0.98    0.47
 -26   1   6    7.37    1.12
 -26   1   6    7.23    1.00
 -26   1   5    3.91    1.33
 -26   1   5    3.59    1.21
 -26   1   5    4.20    1.39
 -26   1   4    3.62    1.46
 -26   1   4    2.98    1.78
 -26   1   3    7.95    1.90
 -26   1   3   12.39    2.32
 -26   1   3    7.46    2.02
 -26   1   2    4.43    1.90
 -26   1   2    6.49    2.24
 -26  -1  -2    6.10    1.48
 -26   1   1    6.45    1.82
 -26   1   1    3.71    2.11
 -26  -1  -1    1.50    1.52
 -26  -1   0    1.19    1.59
 -26   1   0    0.39    1.57
 -26   1   0    3.15    1.91
 -26  -1   1    5.11    2.14
 -26  -1   1    1.51    1.74
 -26   1  -1    4.74    1.53
 -26  -1   2    6.52    2.26
 -26  -1   2    3.67    1.87
 -26  -1   2    4.51    1.59
 -26  -1   3   15.46    2.13
 -26  -1   4    1.79    1.44
 -26  -1   4    2.64    1.27
 -26  -1   4    1.59    1.76
 -26  -1   5    4.02    1.31
 -26  -1   5    2.65    1.13
 -26  -1   5    3.45    1.32
 -26  -1   5    3.35    1.59
 -26  -1   6    6.39    1.08
 -26   2   6    1.75    0.93
 -26   2   6    2.76    0.84
 -26   2   5    1.11    1.25
 -26   2   5    2.62    1.29
 -26   2   5    2.30    1.10
 -26   2   3    4.80    1.94
 -26   2   3    3.05    2.08
 -26   2   2    2.68    1.81
 -26   2   2   -1.96    2.09
 -26  -2  -2    3.45    1.49
 -26   2   1    1.03    1.69
 -26  -2  -1    1.98    1.59
 -26   2   1    3.14    2.00
 -26  -2   0    7.96    1.79
 -26   2   0    8.01    1.75
 -26   2   0    9.74    2.03
 -26   2  -1    2.41    1.48
 -26  -2   1    0.86    1.77
 -26   2  -2   -1.82    1.62
 -26  -2   2   -0.85    1.85
 -26  -2   2    0.21    1.38
 -26   2  -3    0.04    1.38
 -26  -2   3    2.31    1.43
 -26  -2   3    1.69    1.78
 -26  -2   4    5.46    1.50
 -26  -2   4    4.30    1.77
 -26  -2   5    1.11    1.22
 -26  -2   5    1.47    1.48
 -26  -2   5    1.40    1.12
 -26  -2   6    1.74    1.04
 -26  -2   6    3.85    1.12
 -26  -2   7    1.97    0.49
 -26   3   5    1.26    1.16
 -26   3   5    1.37    1.41
 -26   3   4    0.92    1.16
 -26   3   4    2.69    1.68
 -26   3   4    1.75    1.39
 -26   3   3    2.34    1.70
 -26   3   3    3.02    1.84
 -26   3   3    5.98    2.12
 -26   3   2    6.06    1.87
 -26   3   2    7.48    2.06
 -26  -3  -1    2.53    1.60
 -26   3   1    4.15    1.81
 -26   3   1    3.97    1.92
 -26   3   0    3.46    1.84
 -26  -3   0    2.56    1.77
 -26   3   0    4.75    1.64
 -26   3  -1   -0.39    1.72
 -26  -3   1    1.72    1.83
 -26   3  -1    4.26    1.74
 -26  -3   1   -0.53    1.55
 -26   3  -2    4.00    1.64
 -26  -3   2    9.69    1.98
 -26  -3   2    7.74    1.62
 -26   3  -3    3.41    1.42
 -26  -3   3    0.71    1.33
 -26  -3   3    4.13    1.78
 -26  -3   4    0.82    1.38
 -26  -3   4    1.48    1.65
 -26  -3   5   -0.35    1.16
 -26  -3   5    0.06    1.44
 -26  -3   5    1.26    1.06
 -26  -3   6    1.36    1.06
 -26  -3   6    1.70    1.05
 -26  -3   6    0.63    0.99
 -26   4   5   -0.32    1.08
 -26   4   4    1.75    1.55
 -26   4   4    2.55    1.29
 -26   4   4    1.65    1.79
 -26   4   4    2.18    1.30
 -26   4   3    1.77    1.64
 -26   4   3   -0.21    2.01
 -26   4   2    2.40    1.98
 -26   4   1    0.57    1.78
 -26   4   1   -0.56    1.68
 -26   4   0    9.50    2.16
 -26  -4   0   16.04    2.02
 -26   4   0   12.72    1.93
 -26  -4   1    0.97    1.50
 -26  -4   1   -0.28    1.74
 -26   4  -1   -1.06    1.59
 -26  -4   2    3.57    1.54
 -26  -4   2    2.51    1.71
 -26   4  -2    3.62    1.55
 -26  -4   3    1.62    1.36
 -26  -4   3   -0.39    1.68
 -26   4  -3    0.31    1.39
 -26  -4   4    1.56    1.23
  26   4   4    2.48    1.33
 -26  -4   4    0.07    1.62
 -26  -4   4    2.70    1.36
 -26  -4   5    0.72    1.42
 -26  -4   5    1.27    1.10
 -26  -4   6    2.15    0.97
 -26  -4   6    0.94    1.00
 -26   5   5    2.47    1.06
 -26   5   4    0.34    1.45
 -26   5   4   -0.53    1.20
 -26   5   3    5.86    1.64
 -26   5   3    5.67    1.39
 -26   5   3    1.74    1.75
 -26   5   3    4.79    2.02
 -26   5   2   18.02    2.25
 -26   5   1    3.16    1.92
 -26   5   1   -0.86    1.91
 -26   5   0   14.28    2.06
 -26   5   0   10.31    2.03
 -26   5   0   12.90    1.87
 -26   5  -1    0.57    1.59
 -26   5  -1   -1.80    1.74
 -26  -5   1    0.83    1.44
 -26  -5   2   18.19    1.98
 -26  -5   2   25.08    2.24
 -26   5  -2   24.30    2.18
 -26  -5   3    1.93    1.38
 -26  -5   3    3.96    1.72
 -26   5  -3    3.93    1.43
  26   5   4   -0.26    1.32
 -26  -5   4    1.31    1.20
 -26  -5   4    0.92    1.52
 -26   5  -4    0.45    1.18
 -26  -5   4   -0.47    1.26
 -26  -5   5    3.90    1.40
 -26  -5   5    2.26    1.00
 -26  -5   6    3.31    0.95
 -26  -5   6    3.35    0.94
 -26   6   4    1.74    1.32
 -26   6   4    0.58    1.10
 -26   6   3   10.53    1.61
 -26   6   3    8.75    1.84
 -26   6   3    9.11    1.96
 -26   6   3    8.50    1.40
 -26   6   2    6.31    1.60
 -26   6   2    8.72    1.84
 -26   6   2    5.09    1.93
 -26   6   1    1.46    1.88
 -26   6   1   -1.32    1.85
 -26   6   0   -2.86    1.81
 -26   6   0   -1.90    1.73
 -26  -6   1   -1.35    1.39
 -26   6  -1   -3.89    1.76
 -26   6  -1   -1.08    1.63
 -26   6  -2    7.92    1.65
 -26   6  -2    6.18    1.59
 -26  -6   2    8.93    1.57
 -26  -6   2   10.05    1.77
 -26  -6   3    8.67    1.50
 -26  -6   3    9.57    1.73
 -26   6  -3    7.42    1.56
 -26  -6   4    2.19    1.16
  26   6   4    0.85    1.30
 -26  -6   4   -0.37    1.35
 -26   6  -4   -0.06    1.19
 -26  -6   4    1.90    1.16
 -26  -6   5    2.11    0.95
 -26  -6   5    2.43    1.28
 -26  -6   5    3.22    0.85
 -26  -6   6    1.29    0.81
 -26  -6   6    1.08    0.81
 -26   7   4    6.93    1.13
 -26   7   3   14.29    1.66
 -26   7   3   14.76    1.88
 -26   7   3   17.00    2.18
 -26   7   3   13.84    1.47
 -26   7   2    2.59    1.40
 -26   7   2    0.30    1.63
 -26   7   2    2.73    1.85
 -26   7   2    0.16    1.16
 -26   7   1    2.25    1.61
 -26   7   1    2.31    1.80
 -26   7   0    3.27    1.80
 -26   7   0    1.92    1.67
 -26   7  -1    1.67    1.57
 -26   7  -1    0.60    1.66
 -26  -7   1   -0.46    1.28
 -26  -7   1    0.49    1.48
 -26   7  -2    2.68    1.52
 -26   7  -2   -1.57    1.50
 -26  -7   2    1.47    1.53
 -26  -7   2    0.27    1.30
 -26  -7   3   14.09    1.57
  26   7   3   17.21    1.81
 -26  -7   3   14.46    1.74
 -26   7  -3   17.22    1.80
 -26  -7   4    6.61    1.17
  26   7   4    4.50    1.39
 -26  -7   4    4.70    1.09
 -26   7  -4    6.83    1.31
 -26  -7   5    2.54    0.91
 -26  -7   5    3.51    1.20
 -26  -7   6    8.47    0.83
 -26  -7   6    8.01    0.77
 -26   8   4    5.18    1.61
 -26   8   3   -1.04    1.44
 -26   8   2   -1.82    1.55
 -26   8   2    2.33    1.86
 -26   8   1   -0.50    1.65
 -26   8   1    1.26    1.52
 -26   8   0    6.38    1.58
 -26   8   0    3.32    1.73
 -26   8   0    3.03    1.75
 -26   8  -1    0.29    1.59
 -26   8  -1    1.64    1.59
 -26  -8   2   -0.11    1.21
 -26   8  -2   -1.21    1.47
 -26   8  -2    1.87    1.52
  26   8   3    0.81    1.41
 -26  -8   3    1.38    1.18
 -26   8  -3    3.39    1.38
 -26  -8   3    1.77    1.10
 -26  -8   4    6.23    1.11
  26   8   4    8.42    1.35
 -26   8  -4    5.30    1.26
 -26  -8   5    7.09    1.09
 -26   9   4    8.51    1.54
 -26   9   2    2.29    1.73
 -26   9   2    4.89    1.43
 -26   9   1    6.93    1.56
 -26   9   1    6.85    1.83
 -26   9   0    4.32    1.69
 -26   9   0    3.77    1.46
 -26   9  -1    7.03    1.68
 -26   9  -1    8.36    1.50
 -26   9  -1    8.16    1.71
  26   9   2    1.61    1.48
 -26  -9   2    2.73    1.14
 -26   9  -2    1.29    1.45
 -26   9  -2    3.67    1.53
 -26  -9   3    4.02    1.12
 -26   9  -3    0.10    1.30
 -26  -9   4    5.72    1.03
  26   9   4    8.33    1.27
 -26  -9   4    5.54    1.26
 -26   9  -4    8.17    1.27
 -26   9  -5   -0.71    0.68
 -26  -9   5    1.44    0.74
 -26  10   4    8.37    1.37
 -26  10   3   10.17    1.71
  26  10  -2    3.24    1.20
 -26  10   1    1.14    1.31
 -26  10   1    1.70    1.63
 -26  10   0    0.66    1.32
 -26  10   0    2.60    1.58
 -26  10  -1    2.33    1.27
 -26  10  -1   -0.38    1.51
 -26  10  -1   -0.12    1.50
  26  10   1    3.44    1.49
 -26  10  -2    2.27    1.39
 -26  10  -2    4.62    1.45
  26  10   2    6.03    1.49
 -26 -10   2    2.18    1.03
 -26 -10   3    9.47    1.14
 -26  10  -3    9.91    1.48
 -26  10  -4    8.14    1.23
  26  10   4    7.77    1.17
 -26 -10   4    7.10    1.07
 -26 -10   5    1.37    0.68
 -26  11   3    2.99    1.40
  26  11  -1    2.33    1.26
 -26  11   1    0.30    1.52
  26  11   0    0.96    1.31
 -26  11   0    0.15    1.43
 -26  11   0    1.32    1.16
  26  11   1    4.96    1.43
 -26  11  -1    3.05    1.20
 -26  11  -1    3.96    1.54
  26  11   2    2.64    1.33
 -26  11  -2    4.17    1.35
 -26  11  -2    1.47    1.30
 -26  11  -2    2.79    1.10
 -26  11  -3    4.58    1.24
 -26 -11   3    3.40    1.09
  26  11   4    1.32    0.91
 -26  11  -4    1.97    0.98
 -26  11  -5    1.55    0.50
 -26  12   3    0.62    1.13
 -26  12   2    0.61    1.29
  26  12  -1    1.15    1.08
 -26  12   1    0.43    1.40
  26  12   0    2.17    1.20
 -26  12   0    0.10    1.38
  26  12   1    1.80    1.25
 -26  12  -1    0.83    1.34
  26  12   2    2.74    1.22
 -26  12  -2    2.80    1.22
 -26  12  -2    3.38    1.16
 -26  12  -2    2.06    0.98
  26  12   3    0.46    1.02
 -26  12  -3   -0.47    1.05
 -26  12  -3    1.74    0.84
  26  12   4    0.87    0.74
 -26  12  -4    0.36    0.78
 -26  12  -4    2.14    0.65
 -26  13   2    0.05    1.13
 -26  13   2    1.78    1.18
 -26  13   1    3.37    1.30
  26  13   0    0.82    1.01
 -26  13   0    0.60    1.26
  26  13   1    3.85    1.10
 -26  13  -1    1.75    1.13
 -26  13  -1    4.00    1.22
  26  13   2    1.74    1.02
 -26  13  -2    0.90    0.97
  26  13   3    5.51    0.94
 -26  13  -3    5.60    0.95
 -26  14   2   -0.10    0.85
 -26  14   1   -1.90    1.11
  26  14   0    0.55    0.77
 -26  14   0   -0.02    1.06
  26  14   1    1.05    0.84
 -26  14  -1    0.37    0.95
  26  14   2   -0.07    0.79
  26  14   3    1.25    0.61
 -26  14  -3   -0.82    0.65
 -26  15   1    4.51    0.86
 -26  15   0    1.24    0.91
 -26  15   0   -0.81    0.82
 -26  15  -1    3.90    0.76
 -27   0   0    0.39    1.62
 -27   0   1    2.01    1.75
 -27   0  -1    1.04    1.47
 -27   0   1    3.03    2.04
 -27   0   2   -0.20    1.78
 -27   0   2    0.04    2.04
 -27   0  -2    3.44    1.40
 -27   0   3   -0.04    1.71
 -27   0  -3    1.43    1.23
 -27   0   4   -0.52    1.38
 -27   0   4    0.11    1.61
 -27   0   5    1.99    1.18
 -27   0   5   -0.95    1.12
 -27   0   5    1.13    1.29
 -27   0   6    1.05    0.90
 -27   0   6    0.70    0.80
 -27   1   6    2.97    0.89
 -27   1   6    3.10    0.77
 -27   1   5    2.65    1.18
 -27   1   5    2.06    1.22
 -27   1   5    2.04    1.40
 -27   1   5    2.25    1.08
 -27   1   4    2.45    1.38
 -27   1   4    3.45    1.65
 -27   1   3    6.18    1.84
 -27   1   3    5.21    1.95
 -27   1   3    3.30    1.91
 -27  -1  -3    7.63    1.38
 -27   1   2    1.81    1.80
 -27   1   2    4.24    2.13
 -27  -1  -2    4.60    1.49
 -27   1   1    6.10    1.84
 -27   1   1    8.88    2.16
 -27  -1  -1    9.21    1.71
 -27  -1   0    1.41    1.65
 -27   1   0    4.13    1.84
 -27   1   0    3.86    1.70
 -27  -1   1   11.66    2.19
 -27  -1   1   12.72    1.99
 -27   1  -1   10.46    1.69
 -27  -1   2   -0.69    1.82
 -27   1  -2    4.10    1.40
 -27  -1   3    5.96    1.82
 -27  -1   4    1.07    1.38
 -27  -1   4    2.13    1.25
 -27  -1   4    4.83    1.74
 -27  -1   5    1.53    1.18
 -27  -1   5    2.71    1.19
 -27  -1   6    3.31    0.88
 -27   2   5    3.75    1.16
 -27   2   5    2.04    1.15
 -27   2   4    0.65    1.17
 -27   2   4    1.33    1.37
 -27   2   3    1.48    2.00
 -27   2   3   -0.59    1.77
 -27   2   2   -0.68    1.76
 -27   2   2    1.03    2.02
 -27  -2  -2    2.74    1.47
 -27   2   1    8.09    1.87
 -27  -2  -1    9.77    1.80
 -27   2   1   11.59    2.17
 -27  -2   0    6.82    1.79
 -27   2   0    7.28    1.73
 -27   2   0    7.62    1.92
 -27  -2   1   10.91    1.94
 -27   2  -1    7.87    1.65
 -27  -2   2    0.45    1.52
 -27  -2   2    2.20    1.83
 -27  -2   3    0.64    1.38
 -27  -2   3    1.84    1.71
 -27  -2   4    2.17    1.34
 -27  -2   4   -1.28    1.62
 -27  -2   5    1.62    1.13
 -27  -2   5    0.13    1.02
 -27  -2   5    3.66    1.26
 -27  -2   6    0.27    0.94
 -27   3   4    2.01    1.30
 -27   3   4    2.24    1.57
 -27   3   3    0.98    1.65
 -27   3   3   -0.29    1.77
 -27   3   3    0.32    1.88
 -27   3   2    2.74    1.80
 -27   3   2    2.53    1.94
 -27  -3  -1   35.43    2.81
 -27   3   1   45.08    3.10
 -27   3   1   41.91    2.96
 -27  -3   0   26.42    2.40
 -27   3   0   21.17    2.23
 -27   3   0   26.61    2.38
 -27  -3   1   41.73    3.06
 -27   3  -1   40.42    2.80
 -27   3  -1   42.82    2.80
 -27  -3   2    1.86    1.50
 -27   3  -2    0.35    1.52
 -27   3  -3   -1.70    1.34
 -27  -3   3   -0.66    1.36
 -27  -3   3   -0.49    1.67
 -27  -3   4    2.37    1.36
 -27  -3   4    2.16    1.59
 -27  -3   5    0.33    1.05
 -27  -3   5    0.19    1.01
 -27  -3   5    0.03    1.35
 -27  -3   6    0.95    0.90
 -27   4   5    2.11    1.02
 -27   4   4    3.59    1.29
 -27   4   4    0.66    1.44
 -27   4   3    1.82    1.32
 -27   4   3    1.15    1.56
 -27   4   3    0.55    1.94
 -27   4   2   -0.24    1.74
 -27   4   2    0.60    1.94
 -27   4   1    1.80    1.72
 -27   4   1    3.14    1.92
 -27   4   0    2.82    1.81
 -27  -4   0    2.73    1.75
 -27   4   0    1.35    1.61
 -27   4  -1    0.38    1.56
 -27  -4   1    2.21    1.82
 -27   4  -1    5.94    1.66
 -27   4  -1    3.75    1.53
 -27   4  -2    0.89    1.49
 -27  -4   2    0.47    1.50
 -27  -4   2    1.08    1.66
 -27   4  -3    1.16    1.34
 -27  -4   3    1.48    1.36
 -27  -4   3    0.91    1.67
 -27  -4   4   -0.91    1.26
 -27  -4   4    0.79    1.17
 -27  -4   4    1.92    1.51
 -27  -4   5    1.71    0.98
 -27  -4   5    0.80    1.28
 -27  -4   6    2.15    0.85
 -27  -4   6    2.73    0.84
 -27  -4   6    2.19    0.83
 -27   5   5    1.65    0.92
 -27   5   4    2.89    1.14
 -27   5   4    3.54    1.38
 -27   5   4    1.84    1.62
 -27   5   3    6.64    1.35
 -27   5   3    8.26    1.60
 -27   5   3    6.44    1.80
 -27   5   3    7.28    1.96
 -27   5   2   13.63    2.10
 -27   5   1    3.54    1.72
 -27   5   1    3.79    1.88
 -27   5   0    2.74    1.73
 -27   5   0    1.64    1.59
 -27   5  -1    2.22    1.59
 -27   5  -1    6.23    1.58
 -27   5  -2   13.72    1.81
 -27  -5   2   12.47    1.71
 -27  -5   2   13.81    1.91
 -27   5  -3    6.39    1.48
 -27  -5   3    3.66    1.39
 -27  -5   3    8.74    1.72
 -27   5  -4    1.52    1.11
 -27  -5   4    1.53    1.17
 -27  -5   4    0.67    1.11
  27   5   4    3.38    1.27
 -27  -5   4    3.74    1.43
 -27  -5   5    0.31    0.85
 -27  -5   5    0.73    1.21
 -27  -5   6    1.88    0.76
 -27  -5   6    2.22    0.78
 -27  -5   6    1.44    0.74
 -27   6   4    2.18    1.06
 -27   6   4    1.33    1.22
 -27   6   3    6.88    1.27
 -27   6   3    4.59    1.48
 -27   6   3    7.01    1.71
 -27   6   3    4.31    1.81
 -27   6   2   10.29    1.63
 -27   6   2    9.27    1.84
 -27   6   2    9.39    2.01
 -27   6   1   -0.56    1.74
 -27   6   1    3.21    1.83
 -27   6   0    0.64    1.69
 -27   6  -1    0.09    1.61
 -27   6  -1   -1.34    1.63
 -27   6  -2    7.80    1.62
 -27  -6   2    9.60    1.55
 -27  -6   2    8.09    1.70
 -27   6  -3    2.93    1.43
 -27  -6   3    6.61    1.37
 -27  -6   3    5.93    1.57
 -27  -6   4    1.52    1.08
  27   6   4    1.47    1.23
 -27   6  -4    1.39    1.12
 -27  -6   4    2.17    1.06
 -27  -6   5   -0.46    0.83
 -27  -6   5    0.64    1.12
 -27  -6   6    1.08    0.58
 -27  -6   6    2.19    0.67
 -27  -6   6    1.10    0.61
 -27   7   3   11.09    1.71
 -27   7   3   12.92    1.99
 -27   7   2    3.02    1.36
 -27   7   2    2.18    1.61
 -27   7   2    1.36    1.80
 -27   7   1    3.39    1.76
 -27   7   1    0.53    1.73
 -27   7   1    1.01    1.62
 -27   7   0   -0.33    1.68
 -27   7   0   -1.66    1.66
 -27  -7   1    2.97    1.55
 -27   7  -1    2.27    1.54
 -27   7  -1    2.28    1.59
 -27  -7   2    0.75    1.48
 -27  -7   2   -0.11    1.27
 -27   7  -2    0.04    1.41
 -27  -7   3   13.61    1.55
  27   7   3    9.95    1.57
 -27  -7   3    7.34    1.33
 -27   7  -3   10.63    1.54
 -27  -7   3    6.31    1.28
 -27  -7   4    8.90    1.20
  27   7   4   12.37    1.42
 -27   7  -4   10.88    1.33
 -27  -7   5    3.62    1.04
 -27   8   4    2.74    1.45
 -27   8   2    0.60    1.48
 -27   8   2    3.05    1.71
 -27   8   1    1.77    1.79
 -27   8   1   -0.86    1.50
 -27   8   1   -1.91    1.68
 -27   8   0   -0.64    1.57
 -27   8   0    1.97    1.49
 -27   8   0   -1.17    1.69
 -27   8  -1    0.35    1.59
 -27   8  -1   -0.31    1.53
 -27  -8   2    3.69    1.23
 -27   8  -2    3.44    1.50
 -27   8  -2    0.61    1.36
  27   8   3    5.31    1.39
 -27  -8   3    2.98    1.12
 -27   8  -3    2.75    1.32
 -27  -8   4    3.25    1.25
 -27  -8   4    3.90    0.96
  27   8   4    1.02    1.11
 -27   8  -4    1.26    1.09
 -27  -8   5    4.00    0.95
 -27  -8   5    3.72    0.83
 -27   9   4    4.82    1.32
 -27   9   2    3.95    1.39
 -27   9   2    3.26    1.73
 -27   9   1    2.03    1.75
 -27   9   1    1.72    1.42
 -27   9   1   -2.61    1.62
 -27   9   0    5.14    1.62
 -27   9   0    9.17    1.53
 -27   9  -1   -0.45    1.46
 -27   9  -1    2.28    1.33
 -27   9  -1   -3.10    1.54
  27   9   2    6.43    1.49
 -27   9  -2    4.27    1.46
 -27   9  -2    2.03    1.37
 -27  -9   3    3.43    1.03
 -27   9  -3    3.21    1.29
 -27  -9   4    2.23    1.04
  27   9   4    0.63    1.03
 -27   9  -4    1.43    1.06
 -27  -9   5    2.03    0.71
 -27  10   2    2.49    1.61
  27  10  -1    5.14    1.34
 -27  10   1    3.81    1.59
 -27  10   1    2.48    1.28
 -27  10   1    4.13    1.59
  27  10   0    3.13    1.39
 -27  10   0    0.37    1.48
 -27  10   0    3.61    1.31
  27  10   1    5.28    1.44
 -27  10  -1    1.60    1.42
 -27  10  -1    3.31    1.49
 -27  10  -1    4.59    1.28
  27  10   2    1.49    1.33
 -27  10  -2    0.14    1.31
 -27  10  -2   -1.00    1.21
 -27  10  -2    3.26    1.15
 -27  10  -3    3.30    1.24
  27  10   4    2.39    0.93
 -27 -10   4    4.24    0.81
 -27  10  -4    2.03    0.95
 -27  11   3    3.67    1.28
  27  11  -1    1.52    1.14
 -27  11   1    0.85    1.55
 -27  11   1   -0.54    1.41
  27  11   0    0.38    1.24
 -27  11   0   -0.27    1.40
 -27  11   0    0.05    1.13
  27  11   1    1.12    1.27
 -27  11  -1    1.35    1.36
 -27  11  -1    0.95    1.08
  27  11   2    3.46    1.26
 -27  11  -2    1.26    1.24
 -27  11  -2    3.02    1.14
 -27  11  -2    4.64    1.07
 -27  11  -3    3.58    1.11
 -27  11  -3    4.84    0.99
  27  11   4    7.86    0.90
 -27  11  -4    9.89    0.85
 -27  12   3    4.41    1.04
  27  12  -1    2.16    0.95
 -27  12   1    4.30    1.42
 -27  12   1    2.80    1.31
  27  12   0    4.89    1.16
 -27  12   0    2.68    1.31
  27  12   1    3.79    1.16
 -27  12  -1    0.08    1.17
  27  12   2    1.12    1.05
 -27  12  -2    0.05    1.08
  27  12   3    3.70    0.93
 -27  12  -3    1.77    0.96
 -27  12  -3    3.40    0.77
  27  12   4    0.79    0.55
 -27  13   2    1.98    1.03
 -27  13   1    2.84    1.15
 -27  13   1    4.18    1.21
  27  13   0    7.65    1.03
 -27  13   0   10.53    1.32
  27  13   1    3.70    0.98
 -27  13  -1    3.11    1.07
  27  13   2    1.63    0.89
  27  13   3    2.67    0.69
 -27  14   2    0.72    0.71
 -27  14   0    1.65    0.93
 -27  14   0   -1.52    0.95
  27  14   1    2.77    0.72
  27  14   2    0.23    0.61
 -27  15   0    0.80    0.62
 -28   0   0   18.29    2.10
 -28   0   1    7.90    2.03
 -28   0   1    5.60    1.79
 -28   0  -1    7.45    1.61
 -28   0   2    8.58    1.98
 -28   0  -2   12.18    1.61
 -28   0   3    4.30    1.77
 -28   0  -3    5.01    1.27
 -28   0   4    1.54    1.57
 -28   0   4    2.55    1.35
 -28   0  -4    4.60    1.07
 -28   0   5    1.64    1.17
 -28   0   5    0.89    1.01
 -28   0   5    0.33    1.06
 -28   0   6    3.50    0.70
 -28   0   6    4.33    0.79
 -28   1   6    1.18    0.69
 -28   1   5    7.89    1.19
 -28   1   5    4.62    1.15
 -28   1   4    2.36    1.18
 -28   1   4    0.65    1.37
 -28   1   4   -0.40    1.53
 -28   1   4    1.78    1.27
 -28   1   3    0.45    1.71
 -28  -1  -3    1.88    1.21
 -28   1   2    3.73    2.00
 -28   1   2    2.87    1.81
 -28  -1  -2    4.02    1.44
 -28   1   1    8.31    2.01
 -28   1   1    3.64    1.78
 -28  -1  -1    6.17    1.62
 -28  -1   0   30.01    2.53
 -28   1   0   33.01    2.53
 -28   1   0   30.14    2.51
 -28  -1   1    2.70    1.76
 -28   1  -1    7.01    1.60
 -28  -1   2    3.06    1.79
 -28   1  -2    3.46    1.39
 -28  -1   3    0.23    1.64
 -28   1  -3    1.36    1.22
 -28  -1   4    0.20    1.54
 -28  -1   4    0.15    1.30
 -28   1  -4    0.16    1.03
 -28  -1   5    9.04    1.19
 -28  -1   5    5.15    1.16
 -28  -1   6    1.16    0.67
 -28   2   5    2.35    1.06
 -28   2   5    2.58    1.02
 -28   2   4    1.78    1.29
 -28   2   3    0.34    1.87
 -28   2   2    3.04    1.78
 -28   2   2    0.20    1.94
 -28  -2  -2    0.88    1.43
 -28   2   1   -0.27    1.71
 -28  -2  -1   -0.59    1.55
 -28   2   1    1.01    1.87
 -28  -2   0    0.13    1.69
 -28   2   0    0.04    1.61
 -28   2   0    2.72    1.70
 -28  -2   1   -0.55    1.76
 -28   2  -1    2.29    1.50
 -28  -2   2    3.30    1.70
 -28  -2   2    2.23    1.83
 -28   2  -2    4.01    1.39
 -28  -2   3    1.57    1.66
 -28  -2   4    0.83    1.50
 -28  -2   4    3.00    1.31
 -28  -2   5    1.92    1.09
 -28  -2   5    3.08    1.04
 -28   2  -5    3.81    0.85
 -28  -2   6    1.27    0.68
 -28   3   4    7.17    1.54
 -28   3   3    5.24    1.61
 -28   3   3    1.77    1.29
 -28   3   3    2.82    1.76
 -28   3   3    2.90    1.79
 -28   3   2    0.65    1.72
 -28   3   2    2.88    1.90
 -28  -3  -1    5.26    1.64
 -28   3   1    4.93    1.81
 -28   3   1    6.84    1.95
 -28  -3   0   22.54    2.26
 -28   3   0   23.54    2.19
 -28   3   0   23.28    2.26
 -28  -3   1    4.59    1.83
 -28   3  -1    5.02    1.55
 -28  -3   2    1.51    1.67
 -28   3  -2    2.95    1.35
 -28  -3   3   -0.39    1.58
 -28  -3   3    0.24    1.34
 -28  -3   4    7.54    1.55
 -28  -3   4    5.64    1.31
 -28  -3   5    2.06    1.21
 -28  -3   5    0.67    0.93
 -28   3  -5    2.62    0.87
 -28  -3   6    1.11    0.70
 -28   4   5    3.18    0.92
 -28   4   4   -0.73    1.34
 -28   4   4    0.99    1.13
 -28   4   3    4.82    1.60
 -28   4   3    3.71    1.31
 -28   4   3    4.82    1.87
 -28   4   2    6.93    1.64
 -28   4   2    4.22    1.77
 -28   4   2    3.95    1.85
 -28   4   1    0.18    1.66
 -28   4   1    0.78    1.80
 -28   4   0    8.28    1.74
 -28   4   0    5.04    1.76
 -28   4  -1    3.23    1.48
 -28   4  -1    1.04    1.51
 -28  -4   2    5.17    1.69
 -28   4  -2    3.72    1.39
 -28  -4   3    3.31    1.61
 -28  -4   3    4.91    1.35
 -28  -4   4    0.81    1.39
 -28  -4   4   -0.80    1.11
 -28  -4   4   -0.15    1.14
 -28  -4   5    2.21    1.16
 -28  -4   5    3.24    0.86
 -28  -4   6    1.48    0.61
 -28  -4   6    1.35    0.65
 -28   5   4    2.71    1.27
 -28   5   4    1.84    1.04
 -28   5   3   11.71    1.67
 -28   5   3   10.76    1.42
 -28   5   3   12.80    1.86
 -28   5   3   12.77    1.99
 -28   5   2    9.55    1.72
 -28   5   2   12.41    2.05
 -28   5   1    2.20    1.67
 -28   5   1    2.30    1.80
 -28   5   0    6.48    1.70
 -28   5   0    7.58    1.78
 -28   5  -1    5.21    1.56
 -28   5  -1    2.98    1.50
 -28  -5   2    9.66    1.73
 -28   5  -2    5.83    1.54
 -28  -5   3   10.98    1.65
 -28  -5   3    7.51    1.44
 -28   5  -3    9.04    1.45
 -28  -5   4    3.31    1.30
 -28  -5   4    1.87    1.09
 -28  -5   4    1.25    1.05
 -28  -5   5    3.87    1.12
 -28  -5   5    4.82    1.09
 -28  -5   6    1.49    0.51
 -28   6   4    1.52    0.93
 -28   6   3    3.57    1.37
 -28   6   3    4.21    1.11
 -28   6   3    2.66    1.56
 -28   6   3    4.36    1.72
 -28   6   2    2.11    1.40
 -28   6   2    2.80    1.18
 -28   6   2    2.95    1.65
 -28   6   2    3.52    1.75
 -28   6   1    2.19    1.74
 -28   6   0    3.61    1.68
 -28   6   0    4.60    1.64
 -28  -6   1    2.50    1.57
 -28   6  -1    0.52    1.48
 -28   6  -1    2.58    1.54
 -28   6  -1    3.46    1.45
 -28  -6   2    4.57    1.55
 -28   6  -2    0.81    1.40
 -28  -6   3    4.42    1.44
  28   6   3    5.51    1.43
 -28  -6   3    3.35    1.25
 -28   6  -3    2.81    1.34
 -28  -6   3    3.52    1.21
 -28  -6   4   -0.46    0.99
 -28  -6   4    0.88    0.92
 -28  -6   5    1.80    0.98
 -28  -6   5    1.84    0.96
 -28   7   3    2.62    1.64
 -28   7   2    1.45    1.27
 -28   7   2    1.96    1.52
 -28   7   2    2.46    1.66
 -28   7   1    3.96    1.57
 -28   7   1    3.07    1.63
 -28   7   0   -2.31    1.62
 -28   7   0    1.47    1.62
 -28  -7   1    3.78    1.49
 -28   7  -1   -0.42    1.49
 -28  -7   2    1.11    1.40
 -28   7  -2   -0.56    1.36
 -28   7  -2    2.56    1.31
 -28  -7   3    4.77    1.27
  28   7   3    3.72    1.36
 -28  -7   3    1.80    1.13
 -28   7  -3    1.22    1.25
 -28  -7   3    1.65    1.04
 -28  -7   4    4.56    1.25
 -28  -7   4    3.98    0.96
 -28  -7   5    3.17    0.88
 -28  -7   5    4.47    0.86
 -28   8   3   -0.03    1.55
 -28   8   2   -0.55    1.40
 -28   8   2    0.32    1.59
 -28   8   1    0.88    1.44
 -28   8   1    2.10    1.66
 -28   8   0   -2.27    1.60
 -28   8   0    0.99    1.58
 -28   8   0    0.15    1.42
 -28   8  -1   -0.88    1.47
 -28   8  -1   -0.49    1.49
  28   8   2    1.14    1.38
 -28   8  -2   -0.86    1.35
 -28  -8   3    2.21    1.03
  28   8   3    1.66    1.26
 -28   8  -3    0.21    1.19
 -28  -8   4    4.10    1.12
  28   8   4    1.70    1.01
 -28  -8   5    5.22    0.78
 -28   8  -5    5.14    0.76
 -28   9   2    4.94    1.32
 -28   9   2    4.23    1.62
 -28   9   1    1.80    1.57
 -28   9   1   -0.98    1.50
 -28   9   1    1.42    1.34
 -28   9   0   -1.22    1.48
 -28   9   0   -1.25    1.31
 -28   9  -1   -0.19    1.44
 -28   9  -1   -1.48    1.38
 -28   9  -1    1.31    1.25
  28   9   2    2.59    1.36
 -28   9  -2    2.28    1.31
  28   9   3    1.44    1.21
 -28   9  -3    1.93    1.18
 -28  -9   4    1.53    0.87
  28   9   4    1.61    0.88
 -28   9  -4    1.87    0.86
 -28  10   2    1.83    1.48
  28  10  -1    4.33    1.23
 -28  10   1    1.23    1.15
 -28  10   1    2.77    1.56
  28  10   0   -0.37    1.25
 -28  10   0   -3.39    1.42
 -28  10   0    0.11    1.20
  28  10   1    4.12    1.34
 -28  10  -1    0.86    1.31
 -28  10  -1   -0.63    1.31
 -28  10  -1    1.78    1.17
  28  10   2    1.42    1.20
 -28  10  -2   -0.70    1.22
 -28  10  -2    3.09    1.10
 -28 -10   3    4.16    1.03
 -28  10  -3    3.24    1.09
 -28  10  -3    3.45    0.96
  28  10   4    0.87    0.74
 -28  11   3    0.60    1.06
  28  11  -1    4.18    1.09
 -28  11   1    4.94    1.47
  28  11   0    5.50    1.22
 -28  11   0    5.26    1.42
 -28  11   0    3.22    1.33
  28  11   1    3.33    1.22
 -28  11  -1    3.46    1.26
 -28  11  -1    4.76    1.09
  28  11   2    4.22    1.14
 -28  11  -2    2.26    1.15
 -28  11  -2    4.67    0.99
 -28  11  -3   -1.92    0.96
 -28  11  -3    0.74    0.76
 -28  11  -4    3.43    0.57
 -28  12   3    0.91    0.74
 -28  12   1    3.05    1.24
  28  12   0    1.50    0.97
 -28  12   0    2.05    1.25
 -28  12   0   -0.89    1.16
  28  12   1    2.32    1.02
  28  12   2    5.83    1.03
 -28  12  -2    5.21    0.98
  28  12   3    1.19    0.73
 -28  13   2    3.34    0.89
 -28  13   1    4.37    1.09
  28  13   0    2.59    0.72
 -28  13   0    3.28    1.01
  28  13   1    4.39    0.85
 -28  13  -1    4.35    1.01
  28  13   2    2.56    0.72
 -28  14   0    0.83    0.74
 -29   0   0    1.77    1.60
 -29   0   1   -0.74    1.66
 -29   0  -1    1.35    1.47
 -29   0   2    1.22    1.65
 -29   0   2   -0.27    1.69
 -29   0  -2   -0.81    1.30
 -29   0   3    2.14    1.63
 -29   0  -3    2.59    1.18
 -29   0   4    1.31    1.11
 -29   0   4    0.20    1.30
 -29   0   4    0.83    1.42
 -29   0   4    1.52    1.21
 -29   0   5    0.68    0.93
 -29   0   5    1.46    0.99
 -29   1   5    1.86    0.95
 -29   1   5    2.77    0.96
 -29   1   4    0.12    1.25
 -29   1   4   -1.04    1.39
 -29   1   4    1.17    1.17
 -29   1   3    1.75    1.56
 -29   1   2   11.11    1.81
 -29   1   2    8.68    1.87
 -29  -1  -2    7.38    1.49
 -29   1   1    4.16    1.72
 -29  -1  -1    6.47    1.59
 -29  -1   0    9.16    1.75
 -29   1   0    6.76    1.68
 -29  -1   1    5.00    1.79
 -29   1  -1    8.55    1.60
 -29  -1   2   11.30    1.82
 -29  -1   2    8.45    1.88
 -29   1  -2    9.73    1.52
 -29  -1   3    2.97    1.62
 -29   1  -3    2.75    1.18
 -29  -1   4   -0.55    1.33
 -29  -1   4    2.30    1.45
 -29  -1   4    2.33    1.23
 -29   1  -4    2.06    0.97
 -29  -1   5    3.81    1.09
 -29  -1   5    2.49    0.93
 -29  -1   5    1.31    0.90
 -29  -1   6    1.43    0.54
 -29   2   5    1.69    0.91
 -29   2   4    1.54    1.19
 -29   2   2    3.34    1.83
 -29   2   2    2.56    1.72
 -29   2   1    3.83    1.83
 -29   2   1    3.98    1.72
 -29  -2  -1    4.53    1.55
 -29  -2   0   -0.20    1.57
 -29   2   0    2.28    1.63
 -29   2   0    2.17    1.61
 -29  -2   1    4.28    1.77
 -29   2  -1    3.43    1.47
 -29  -2   2    2.14    1.64
 -29   2  -2    3.61    1.38
 -29  -2   3    0.07    1.56
 -29   2  -3    1.08    1.16
 -29  -2   4    1.12    1.40
 -29  -2   4    2.82    1.19
 -29   2  -4    2.57    1.01
 -29  -2   5    1.43    0.94
 -29  -2   5    0.36    0.84
 -29   3   4    5.14    1.41
 -29   3   4    2.37    1.09
 -29   3   3    2.04    1.54
 -29   3   3    0.71    1.23
 -29   3   2    4.35    1.65
 -29   3   2    5.76    1.75
 -29   3   2    4.19    1.79
 -29   3   1   18.23    2.10
 -29   3   1   18.39    2.13
 -29  -3   0    5.35    1.70
 -29   3   0    5.64    1.61
 -29   3   0    6.37    1.73
 -29   3  -1   17.01    1.87
 -29  -3   1   17.46    2.05
 -29  -3   2    5.82    1.66
 -29   3  -2    5.13    1.38
 -29  -3   3    3.27    1.51
 -29   3  -3    2.37    1.20
 -29  -3   4    4.88    1.39
 -29  -3   4    4.18    1.16
 -29   3  -4    3.73    1.06
 -29  -3   5    2.54    1.04
 -29  -3   5    1.02    0.94
 -29  -3   5    1.14    0.79
 -29   3  -5    2.15    0.71
 -29   4   4    1.58    1.24
 -29   4   4    2.12    1.04
 -29   4   3    2.79    1.49
 -29   4   3    4.26    1.20
 -29   4   3    0.95    1.58
 -29   4   2    2.11    1.56
 -29   4   2    1.87    1.62
 -29   4   2    2.47    1.69
 -29   4   1    2.00    1.64
 -29   4   1    1.05    1.70
 -29   4   0   -1.34    1.53
 -29   4   0    1.62    1.58
 -29   4  -1    0.48    1.45
 -29   4  -1    2.63    1.41
 -29  -4   2    1.11    1.52
 -29   4  -2    2.79    1.36
 -29  -4   3    5.16    1.51
 -29   4  -3    2.96    1.21
 -29  -4   4    1.56    1.26
 -29  -4   4    1.23    1.01
 -29   4  -4    2.41    1.04
 -29  -4   5    0.82    0.98
 -29   4  -5    3.17    0.75
 -29   5   4    0.62    1.12
 -29   5   4    1.40    0.92
 -29   5   3    3.05    1.36
 -29   5   3    3.92    1.12
 -29   5   3    0.64    1.52
 -29   5   2    9.98    1.59
 -29   5   2    8.92    1.82
 -29   5   1   -0.87    1.59
 -29   5   1    2.53    1.62
 -29   5   0    4.96    1.66
 -29   5   0    6.36    1.65
 -29  -5   1    0.35    1.48
 -29   5  -1    1.62    1.44
 -29   5  -1    2.18    1.40
 -29  -5   2   10.40    1.65
 -29   5  -2    9.55    1.49
 -29  -5   3    2.10    1.37
 -29  -5   3    3.89    1.22
 -29   5  -3    5.70    1.25
 -29  -5   4    1.71    1.29
 -29  -5   4    2.46    0.93
 -29   5  -4    1.59    1.00
 -29  -5   5    2.63    0.91
 -29  -5   5    3.17    0.89
 -29   5  -5    3.25    0.75
 -29   6   3    0.79    1.22
 -29   6   3    2.33    1.47
 -29   6   2    2.01    1.34
 -29   6   2    0.92    1.60
 -29   6   1    0.76    1.56
 -29   6   0    0.39    1.50
 -29   6   0    0.59    1.50
 -29  -6   1    0.88    1.46
 -29   6  -1   -0.29    1.36
 -29   6  -1    3.53    1.38
 -29  -6   2    2.78    1.44
 -29   6  -2    2.85    1.31
  29   6   3    2.08    1.29
 -29  -6   3    3.97    1.29
 -29  -6   3    3.25    1.09
 -29   6  -3    3.96    1.17
 -29  -6   4    2.06    1.18
 -29  -6   4    1.61    0.78
 -29   6  -4    1.45    0.98
 -29  -6   5    1.79    0.78
 -29  -6   5    1.30    0.76
 -29   6  -5    2.03    0.67
 -29   7   3    5.65    1.55
 -29   7   2    0.04    1.40
 -29   7   2    0.18    1.56
 -29   7   1    2.93    1.28
 -29   7   1    2.53    1.49
 -29   7   1    2.86    1.60
 -29  -7   0    0.68    1.35
 -29   7   0   -0.23    1.49
 -29  -7   1    3.16    1.38
 -29   7  -1    2.32    1.34
 -29   7  -1    2.81    1.40
 -29  -7   2    2.29    1.28
 -29   7  -2    2.45    1.27
  29   7   3    5.82    1.31
 -29  -7   3    2.80    0.95
 -29   7  -3    5.99    1.19
 -29  -7   4    6.16    1.17
 -29   7  -4    8.77    1.08
 -29  -7   5    2.00    0.63
 -29   7  -5    2.58    0.60
 -29   8   3    1.82    1.42
 -29   8   2   -0.31    1.32
 -29   8   2    2.80    1.56
 -29   8   1    0.64    1.39
 -29   8   1    0.98    1.51
 -29   8   0    0.14    1.46
 -29   8   0   -1.62    1.36
 -29   8  -1    0.75    1.29
  29   8   2    1.02    1.26
 -29   8  -2    1.98    1.11
  29   8   3    3.23    1.18
 -29   8  -3    3.36    1.05
 -29  -8   4    3.23    0.92
 -29   8  -4    4.37    0.90
  29   9  -2    3.14    1.01
 -29   9   2    1.99    1.17
 -29   9   2    0.54    1.44
 -29   9   1    1.08    1.25
 -29   9   1    0.24    1.43
 -29   9   0    1.77    1.41
 -29   9   0    2.12    1.28
  29   9   1    1.89    1.32
 -29   9  -1    1.09    1.25
 -29   9  -1   -0.48    1.19
  29   9   2    0.17    1.20
 -29   9  -2    1.31    1.06
  29   9   3    2.53    1.06
 -29   9  -4    2.67    0.77
 -29  10   2    2.48    1.31
  29  10  -1    0.40    1.05
 -29  10   1    0.34    1.34
  29  10   0   -0.16    1.16
 -29  10   0    1.29    1.34
 -29  10   0   -1.03    1.09
  29  10   1    0.54    1.18
 -29  10  -1    1.36    1.22
 -29  10  -1    1.24    1.09
  29  10   2    2.34    1.13
 -29  10  -2    3.14    0.99
 -29  10  -2    1.65    0.98
 -29 -10   3    5.28    0.86
 -29  11   3    1.27    0.88
 -29  11   2   -0.06    1.10
  29  11  -1    2.91    0.88
 -29  11   1    1.49    1.25
  29  11   0    1.67    1.03
 -29  11   0    1.58    1.19
  29  11   1    2.56    1.05
 -29  11  -1    1.62    1.11
 -29  11  -1    0.54    0.92
  29  11   2   -0.12    0.94
 -29  11  -2    1.00    0.84
 -29  11  -2    1.69    0.83
 -29  11  -3    2.21    0.64
 -29  12   1    3.17    1.07
  29  12   0    0.85    0.80
 -29  12   0    2.83    1.08
  29  12   1    3.42    0.87
 -29  12  -1    3.10    0.97
  29  12   2    1.67    0.76
 -29  13   1    1.17    0.74
 -29  13   0    3.28    0.84
 -30   0   0   18.86    2.00
 -30   0   1    0.93    1.56
 -30   0  -1    2.70    1.42
 -30   0   2    3.76    1.57
 -30   0   2    2.33    1.63
 -30   0  -2    2.81    1.30
 -30   0   3    3.78    1.57
 -30   0   3    5.04    1.32
 -30   0  -3    4.41    1.13
 -30   0   4    2.51    1.19
 -30   0   4   -0.44    1.30
 -30   0   4    0.86    1.05
 -30   0   5    1.79    0.84
 -30   0   5    0.86    0.77
 -30   1   5   -0.23    0.77
 -30   1   4    2.22    1.13
 -30   1   4    2.05    1.32
 -30   1   4    1.43    1.08
 -30   1   3    3.02    1.52
 -30   1   2    0.69    1.52
 -30   1   2    2.35    1.66
 -30  -1  -2    3.50    1.28
 -30   1   1    3.07    1.59
 -30  -1  -1    1.33    1.44
 -30  -1   0    1.90    1.55
 -30   1   0    1.46    1.54
 -30  -1   1   -0.16    1.59
 -30   1  -1    2.02    1.40
 -30  -1   2    2.88    1.61
 -30   1  -2    3.16    1.29
 -30  -1   3    4.23    1.52
 -30  -1   3    1.95    1.28
 -30   1  -3    2.92    1.13
 -30  -1   4    1.67    1.23
 -30  -1   4    1.45    1.03
 -30  -1   4    1.46    1.27
 -30  -1   4    1.39    1.08
 -30  -1   5    0.70    0.85
 -30  -1   5    0.89    0.72
 -30   2   5    0.71    0.75
 -30   2   2   -0.36    1.54
 -30   2   1    9.03    1.72
 -30   2   1    4.96    1.66
 -30  -2  -1    7.46    1.53
 -30  -2   0    9.78    1.71
 -30   2   0    9.40    1.61
 -30   2   0    8.74    1.66
 -30  -2   1    7.00    1.70
 -30   2  -1    6.03    1.47
 -30  -2   2    2.69    1.50
 -30   2  -2    2.46    1.29
 -30  -2   3   -0.15    1.40
 -30   2  -3    0.15    1.09
 -30  -2   4    1.71    1.23
 -30  -2   4    1.99    1.04
 -30   2  -4    1.53    0.86
 -30  -2   5    0.74    0.73
 -30  -2   5    1.42    0.67
 -30   3   4    0.44    1.17
 -30   3   4    1.68    0.99
 -30   3   3    3.49    1.44
 -30   3   3    2.54    1.19
 -30   3   2    7.31    1.61
 -30   3   2    4.75    1.68
 -30   3   2    3.64    1.67
 -30   3   1    8.44    1.70
 -30   3   1    8.25    1.71
 -30   3   0   25.67    2.07
 -30   3   0   26.59    2.18
 -30   3  -1    9.06    1.52
 -30  -3   2    6.34    1.57
 -30   3  -2    4.59    1.31
 -30  -3   3    3.15    1.42
 -30  -3   3    2.49    1.22
 -30   3  -3    1.33    1.12
 -30  -3   4    1.40    1.17
 -30  -3   4    0.53    0.97
 -30   3  -4    0.94    0.90
 -30  -3   5    0.11    0.74
 -30  -3   5    1.40    0.86
 -30   4   4    1.68    1.11
 -30   4   4    0.56    0.89
 -30   4   3    4.33    1.35
 -30   4   3    3.78    1.12
 -30   4   2    1.75    1.44
 -30   4   2    1.56    1.51
 -30   4   2    0.57    1.59
 -30   4   1    2.92    1.61
 -30   4   1    3.12    1.59
 -30   4   0   -0.08    1.50
 -30   4   0    1.40    1.45
 -30  -4   1    3.36    1.49
 -30   4  -1    4.57    1.41
 -30  -4   2    3.36    1.49
 -30   4  -2    1.88    1.27
 -30  -4   3    2.99    1.34
 -30  -4   3    2.35    1.16
 -30   4  -3    3.14    1.16
 -30  -4   4    1.95    1.19
 -30  -4   4    0.05    0.87
 -30   4  -4    2.31    0.93
 -30  -4   5    1.48    0.76
 -30   5   4    4.04    0.84
 -30   5   3    1.64    1.22
 -30   5   3    2.23    0.98
 -30   5   2    9.48    1.51
 -30   5   2    8.26    1.23
 -30   5   2    9.82    1.67
 -30   5   1    2.87    1.58
 -30   5   1    2.53    1.54
 -30   5   0    1.08    1.42
 -30   5   0   -0.97    1.40
 -30  -5   1    3.02    1.43
 -30   5  -1    3.78    1.41
 -30   5  -1    4.08    1.29
 -30  -5   2   11.03    1.57
 -30   5  -2    9.21    1.44
  30   5   3    2.48    1.20
 -30  -5   3    3.57    1.27
 -30  -5   3    4.06    1.09
 -30   5  -3    3.26    1.12
 -30  -5   4    3.42    1.11
 -30  -5   4    1.02    0.76
 -30   5  -4    2.77    0.91
 -30  -5   5    2.95    0.68
 -30   6   3    0.30    1.36
 -30   6   2    1.11    1.23
 -30   6   2    2.09    1.52
 -30   6   1   -0.85    1.26
 -30   6   1    0.87    1.47
 -30   6   0    0.07    1.43
 -30   6   0   -1.77    1.41
 -30  -6   1    1.69    1.37
 -30   6  -1    1.29    1.35
 -30   6  -1    1.54    1.24
 -30  -6   2    3.72    1.30
 -30   6  -2   -0.52    1.22
  30   6   3    0.81    1.14
 -30  -6   3    0.88    1.08
 -30  -6   3    2.03    0.94
 -30   6  -3    2.59    1.07
 -30  -6   4    0.48    0.98
 -30   6  -4    1.63    0.88
 -30   7   3    1.20    1.33
 -30   7   2    1.32    1.30
 -30   7   2    3.08    1.45
 -30   7   1    1.18    1.44
 -30   7   0    3.35    1.38
 -30   7  -1    2.18    1.33
 -30   7  -1    3.62    1.28
 -30   7  -2    3.90    1.25
  30   7   3    1.34    1.11
 -30  -7   3    1.23    0.77
 -30   7  -3    2.43    1.02
 -30  -7   4    3.47    0.89
 -30   7  -4    4.14    0.86
 -30   8   3    1.79    1.23
 -30   8   2    1.24    1.22
 -30   8   2    1.27    1.38
 -30   8   1    0.69    1.27
 -30   8   1    1.17    1.38
 -30   8   0    0.03    1.28
 -30   8   0    0.24    1.32
 -30   8  -1   -0.14    1.17
 -30  -8   2    2.04    0.86
 -30   8  -2    2.76    1.11
  30   8   3    1.75    1.03
 -30   8  -3    1.61    0.97
 -30   8  -4    1.70    0.71
 -30   9   3    1.77    1.04
 -30   9   2    0.28    1.28
  30   9  -1    3.09    1.09
 -30   9   1    2.78    1.12
 -30   9   1    0.89    1.30
  30   9   0    0.84    1.16
 -30   9   0   -1.34    1.17
 -30   9   0   -0.76    1.24
  30   9   1    1.70    1.18
 -30   9  -1    1.37    1.12
 -30   9  -1    1.86    1.12
  30   9   2    2.55    1.09
 -30  -9   3    2.13    0.84
  30   9   3    1.65    0.89
 -30  10   2    1.70    1.16
  30  10  -1    0.70    0.89
 -30  10   1    0.88    1.19
  30  10   0    1.44    1.03
 -30  10   0   -0.53    0.99
 -30  10   0    0.96    1.15
  30  10   1    0.61    1.03
 -30  10  -1    2.39    0.96
 -30  10  -1    0.43    0.99
  30  10   2    1.22    0.95
 -30  10  -2    0.86    0.85
 -30  11   2    3.62    0.98
 -30  11   1    2.87    1.09
  30  11   0    0.93    0.84
 -30  11   0    1.01    0.96
  30  11   1    2.23    0.88
 -30  11  -1    2.51    0.88
  30  11   2    3.34    0.78
 -30  11  -2    3.69    0.70
 -30  12   1    0.15    0.73
 -30  12   0    1.13    0.76
 -31   0   0    0.69    1.43
 -31   0   1    0.58    1.50
 -31   0  -1   -0.12    1.29
 -31   0   2    0.93    1.46
 -31   0  -2   -0.20    1.15
 -31   0   3    0.17    1.37
 -31   0   3    0.40    1.12
 -31   0   4    0.97    1.01
 -31   0   4    1.66    1.14
 -31   0   4   -0.02    0.95
 -31   1   4    4.28    1.18
 -31   1   4    2.73    0.97
 -31   1   3    4.18    1.41
 -31   1   2    3.01    1.49
 -31  -1  -2    0.64    1.10
 -31   1   1    2.09    1.49
 -31  -1  -1    2.18    1.33
 -31  -1   0    1.83    1.45
 -31   1   0    1.60    1.45
 -31  -1   1    3.24    1.51
 -31   1  -1    1.91    1.33
 -31  -1   2   -0.24    1.46
 -31   1  -2    0.85    1.17
 -31  -1   3    1.95    1.36
 -31  -1   3    0.88    1.14
 -31   1  -3    1.69    0.97
 -31  -1   4    2.91    1.09
 -31  -1   4    4.31    1.16
 -31  -1   4    2.69    0.96
 -31  -1   5    1.86    0.63
 -31   2   2    0.69    1.47
 -31  -2  -1    2.20    1.27
 -31   2   1    1.14    1.48
 -31  -2   0    0.36    1.41
 -31   2   0    1.78    1.41
 -31   2  -1    1.89    1.36
 -31  -2   2    1.87    1.41
 -31   2  -2    3.09    1.23
 -31  -2   3    1.46    1.30
 -31  -2   3    1.15    1.12
 -31   2  -3    0.17    0.97
 -31  -2   4    3.21    0.91
 -31   3   4   -0.40    1.03
 -31   3   4   -0.16    0.84
 -31   3   3    0.87    1.30
 -31   3   3    2.42    1.05
 -31   3   2    5.13    1.47
 -31   3   2    5.60    1.57
 -31   3   1    5.40    1.46
 -31   3   1    7.17    1.59
 -31   3   0    5.10    1.33
 -31   3   0    5.68    1.49
 -31  -3   1    7.29    1.50
 -31   3  -1    4.23    1.40
 -31  -3   2    3.90    1.44
 -31   3  -2    5.37    1.28
 -31  -3   3    3.19    1.26
 -31  -3   3    3.07    1.11
 -31   3  -3    1.96    1.02
 -31  -3   4    0.21    0.91
 -31  -3   4    1.50    0.79
 -31   3  -4    0.88    0.74
 -31   4   4    1.17    0.74
 -31   4   3    4.89    1.25
 -31   4   3    2.39    0.97
 -31   4   2    3.15    1.40
 -31   4   2    4.86    1.14
 -31   4   2    3.89    1.46
 -31   4   2    2.78    1.47
 -31   4   1    5.91    1.44
 -31   4   1    3.21    1.51
 -31   4   0    3.58    1.32
 -31   4   0    0.72    1.39
 -31  -4   1    1.23    1.38
 -31   4  -1    2.82    1.36
 -31  -4   2    3.36    1.37
 -31   4  -2    4.90    1.25
  31   4   3    3.62    1.15
 -31  -4   3    6.50    1.23
 -31  -4   3    3.45    1.06
 -31   4  -3    4.80    1.09
 -31  -4   4    1.24    0.99
 -31  -4   4    1.27    0.71
 -31   4  -4    2.72    0.77
 -31   5   3    8.23    1.22
 -31   5   2    8.96    1.41
 -31   5   2   12.13    1.56
 -31   5   1    1.57    1.32
 -31   5   1    3.58    1.42
 -31   5   1    2.13    1.37
 -31   5   0    4.59    1.49
 -31   5   0    5.73    1.34
 -31  -5   1    2.17    1.30
 -31   5  -1    2.70    1.30
 -31  -5   2    9.19    1.42
 -31   5  -2   13.85    1.44
  31   5   3    7.94    1.20
 -31  -5   3    9.85    1.18
 -31  -5   3    5.02    0.99
 -31   5  -3    6.73    1.14
 -31  -5   4    3.98    0.93
 -31   5  -4    3.22    0.79
 -31   6   2    3.37    1.37
 -31   6   1   -0.30    1.16
 -31   6   1    1.43    1.38
 -31  -6   0    1.79    1.20
 -31   6   0   -0.99    1.32
 -31   6   0    2.10    1.27
 -31  -6   1    0.02    1.20
 -31   6  -1   -0.24    1.24
 -31  -6   2    1.57    1.10
 -31   6  -2    1.60    1.12
  31   6   3    0.82    1.00
 -31  -6   3    2.27    0.77
 -31   6  -3    1.71    0.97
 -31  -6   4    1.64    0.77
 -31   6  -4    1.32    0.68
 -31   7   2    1.50    1.26
 -31   7   1    3.75    1.37
 -31   7   0    1.41    1.19
 -31   7  -1    3.54    1.20
 -31   7  -1    3.01    1.06
 -31  -7   2    1.52    0.84
 -31   7  -2    2.98    1.09
  31   7   3    0.93    0.93
 -31   7  -3    1.01    0.87
 -31  -7   4    1.68    0.63
 -31   8   2    0.99    1.15
 -31   8   1   -0.85    1.14
 -31   8   1   -0.12    1.17
 -31   8   0   -1.89    1.19
 -31   8   0    1.45    1.12
  31   8   1   -0.38    1.11
 -31   8  -1    2.19    1.01
 -31   8  -2    1.80    1.01
 -31  -8   3    1.37    0.81
  31   8   3    1.60    0.82
 -31   8  -3    0.40    0.80
 -31   9   2    0.70    1.06
  31   9  -1    1.84    0.90
 -31   9   1    0.81    0.99
 -31   9   1    2.04    1.15
  31   9   0   -0.32    0.98
 -31   9   0   -0.02    1.00
 -31   9   0    1.71    1.05
  31   9   1    0.02    1.00
 -31   9  -1   -1.05    1.02
  31   9   2    0.42    0.91
  31   9   3    2.18    0.67
 -31  10   2    0.32    0.87
 -31  10   1    0.80    0.99
  31  10   0    0.77    0.84
 -31  10   0    0.76    0.81
 -31  10   0    0.04    0.89
  31  10   1    1.13    0.86
 -31  10  -1   -0.24    0.78
  31  10   2    0.41    0.70
 -31  10  -2    0.60    0.65
 -31  11   1    1.61    0.72
  31  11   1    1.79    0.61
 -32   0   0    6.76    1.42
 -32   0   1    4.13    1.43
 -32   0  -1    4.08    1.25
 -32   0   2    0.85    1.37
 -32   0  -2    2.39    1.04
 -32   0   3    2.68    1.14
 -32   0   3    2.68    1.22
 -32   0   3    3.29    1.06
 -32   0   4    1.06    0.78
 -32   1   4    0.47    0.75
 -32   1   3    1.31    1.23
 -32   1   2    1.02    1.35
 -32   1   1    3.83    1.42
 -32  -1  -1    2.55    1.18
 -32   1   0   19.38    1.77
 -32  -1   0   18.23    1.73
 -32  -1   1    2.35    1.36
 -32   1  -1    1.55    1.21
 -32  -1   2   -1.27    1.30
 -32   1  -2   -0.11    1.04
 -32  -1   3    1.42    1.20
 -32  -1   3    1.22    1.02
 -32   1  -3    0.66    0.80
 -32  -1   4    1.92    0.84
 -32  -1   4    1.15    0.74
 -32   2   1    3.54    1.40
 -32   2   0    2.67    1.33
 -32  -2   1    5.81    1.41
 -32   2  -1    3.51    1.23
 -32  -2   2   -0.83    1.29
 -32   2  -2   -0.44    1.07
 -32  -2   3    3.18    1.16
 -32  -2   3    1.91    0.98
 -32   2  -3   -0.48    0.83
 -32  -2   4    1.09    0.85
 -32  -2   4    1.38    0.71
 -32   3   4    0.15    0.66
 -32   3   3    1.40    1.13
 -32   3   3    2.31    0.89
 -32   3   2    2.31    1.33
 -32   3   2    2.70    1.05
 -32   3   1   13.74    1.66
 -32   3   0   -0.31    1.34
 -32  -3   1    9.53    1.47
 -32   3  -1   10.87    1.44
 -32  -3   2    3.06    1.26
 -32   3  -2    1.17    1.07
 -32  -3   3    2.08    1.06
 -32  -3   3    1.26    0.94
 -32   3  -3    1.44    0.88
 -32  -3   4    1.71    0.60
 -32   4   3   -0.11    1.03
 -32   4   3    2.23    0.81
 -32   4   2    1.68    1.23
 -32   4   2    0.75    0.95
 -32   4   1    2.58    1.32
 -32   4   1   -0.19    1.31
 -32   4   0    1.81    1.28
 -32  -4   1    0.77    1.21
 -32   4  -1    1.13    1.18
 -32  -4   2    1.74    1.17
 -32   4  -2   -0.65    1.05
 -32  -4   3    1.10    0.94
 -32  -4   3    1.24    0.82
 -32   4  -3    1.77    0.90
 -32  -4   4    1.01    0.62
 -32  -4   4    0.77    0.74
 -32   5   2    3.26    1.14
 -32   5   1   -0.19    1.20
 -32   5   1    2.08    1.18
 -32   5   1    1.89    1.33
 -32  -5   0    4.06    1.20
 -32   5   0    4.97    1.13
 -32   5   0    5.12    1.33
 -32  -5   1    2.54    1.17
 -32   5  -1    2.99    1.23
 -32  -5   2    3.68    1.09
 -32   5  -2    1.11    1.07
 -32  -5   3    2.66    0.72
 -32   5  -3    1.74    0.89
 -32  -5   4    2.48    0.64
 -32   6   1    0.97    1.16
 -32  -6   0    1.66    1.05
 -32   6   0   -0.29    1.05
 -32   6   0    0.25    1.18
 -32  -6   1    1.29    1.02
 -32   6  -1   -1.49    1.14
  32   6   2    2.29    1.10
 -32  -6   2    1.82    0.82
 -32   6  -2    2.27    1.03
 -32  -6   3    1.41    0.90
 -32   6  -3    1.37    0.83
  32   7  -2    1.71    0.73
 -32   7   1    1.50    1.04
 -32   7   0   -0.27    1.00
  32   7   1    0.23    1.06
 -32   7  -1   -0.23    1.03
 -32   7  -2    1.39    0.94
 -32  -7   3    1.40    0.73
  32   7   3    1.36    0.71
 -32   7  -3   -0.28    0.67
  32   8  -1    1.49    0.84
 -32   8   1   -0.95    0.94
 -32   8   1    0.66    0.95
  32   8   0    0.79    0.94
 -32   8   0    0.53    0.90
  32   8   1    1.34    0.95
 -32   8  -2   -0.44    0.78
 -32   9   1    0.55    0.86
  32   9   0    1.11    0.81
 -32   9   0    0.29    0.82
 -32   9   0   -0.35    0.79
  32   9   1    0.91    0.81
 -32   9  -1   -0.65    0.76
  32   9   2    1.04    0.68
 -33   0   0    1.52    1.14
 -33   0   1    2.01    1.28
 -33   0  -1    1.95    1.04
 -33   0   2    1.63    1.21
 -33   0   3   -0.09    1.01
 -33   0   3    0.72    0.85
 -33   0   4    0.10    0.50
 -33   1   3    1.66    1.04
 -33   1   2    1.67    1.24
 -33   1   1   13.72    1.57
 -33   1   0    4.19    1.21
 -33   1  -1   17.51    1.46
 -33  -1   1   13.58    1.57
 -33  -1   2    0.33    1.16
 -33   1  -2    1.10    0.84
 -33  -1   3    1.61    0.93
 -33  -1   3   -0.07    0.98
 -33  -1   3    2.12    0.84
 -33   2   3    0.19    0.76
 -33   2   2    1.29    0.96
 -33   2   1    3.05    1.26
 -33   2   0   -0.68    1.18
 -33  -2   1    3.91    1.25
 -33   2  -1    4.46    1.13
 -33  -2   2    0.50    1.12
 -33   2  -2   -1.22    0.93
 -33  -2   3    0.66    0.93
 -33  -2   3    0.66    0.93
 -33  -2   3    0.66    0.80
 -33   3   3    0.40    0.92
 -33   3   3   -0.65    0.68
 -33   3   2    0.02    1.11
 -33   3   2    0.82    0.87
 -33   3   1    5.22    1.30
 -33  -3   0    1.05    1.13
 -33   3   0    2.29    1.18
 -33  -3   1    5.83    1.22
 -33   3  -1    5.03    1.15
 -33  -3   2    1.22    1.05
 -33  -3   2    1.04    0.92
 -33   3  -2    0.30    0.91
 -33  -3   3    1.11    0.84
 -33  -3   3   -0.23    0.69
 -33   4   3    0.52    0.84
 -33   4   2    2.65    1.07
 -33   4   1    4.37    1.20
 -33   4   1    2.57    1.24
 -33  -4   0    0.42    1.05
 -33   4   0    0.87    1.13
 -33  -4   1    2.25    1.09
 -33   4  -1    4.29    1.12
 -33  -4   2    1.28    0.97
 -33  -4   2    2.59    0.88
 -33   4  -2    2.97    0.94
 -33  -4   3    0.56    0.84
 -33  -4   3    2.01    0.60
 -33   4  -3    0.02    0.64
 -33  -5  -1    4.04    0.93
 -33   5   1    1.97    1.08
 -33   5   1    4.83    1.17
 -33   5   0    1.49    1.07
 -33  -5   0    2.97    0.97
 -33   5   0    1.74    1.11
 -33  -5   1    4.34    0.99
 -33   5  -1    1.39    1.04
  33   5   2    6.02    1.02
 -33  -5   2    6.37    0.87
 -33  -5   2    3.56    0.80
 -33   5  -2    3.90    0.98
 -33  -5   3    0.41    0.75
 -33   6   1    1.72    1.11
 -33   6   0   -0.50    1.03
  33   6   1    0.85    0.98
 -33   6  -1   -0.06    0.96
  33   6   2    1.71    0.88
 -33   6  -2    0.30    0.84
  33   7  -1    1.87    0.78
  33   7   0    0.95    0.88
  33   7   1    1.27    0.89
 -33   7  -1    0.99    0.92
 -33   7  -2    1.35    0.72
  33   8   0    0.01    0.72
  33   8   1    1.17    0.75
 -34   0   1    4.57    1.15
 -34   0   2    1.53    1.02
 -34   0   3    0.52    0.76
 -34   0   3    0.01    0.60
 -34   1   3    1.07    0.78
 -34   1   2    1.27    1.02
 -34   1   1    3.25    1.17
 -34  -1   0    1.93    1.08
 -34   1   0    1.22    0.96
 -34  -1   1    2.25    1.08
 -34   1  -1    4.44    0.94
 -34  -1   2    0.52    0.96
 -34  -1   2    1.20    0.84
 -34  -1   3    0.64    0.74
 -34  -1   3    0.11    0.59
 -34   2   3   -0.44    0.54
 -34   2   2    3.30    0.82
 -34  -2   0    1.16    1.03
 -34   2   0    0.12    0.99
 -34  -2   1    3.87    1.08
 -34   2  -1    2.59    0.93
 -34  -2   2    1.55    0.93
 -34  -2   2    3.32    0.82
 -34  -2   3   -0.04    0.63
 -34  -2   3    0.30    0.52
 -34   3   2    2.57    0.96
 -34   3   2    2.59    0.71
 -34   3   1    1.52    1.07
 -34  -3   0    2.52    0.98
 -34   3   0    4.66    1.03
 -34  -3   1    3.65    1.00
 -34   3  -1    3.63    0.93
  34   3   2    3.96    0.92
 -34  -3   2    2.97    0.87
 -34  -3   2    2.94    0.76
 -34   3  -2    2.31    0.71
 -34   4   2    1.77    0.85
 -34  -4  -1    1.00    0.80
 -34   4   1    0.82    0.96
 -34   4   0    1.00    0.99
 -34  -4   0    2.17    0.88
 -34   4   0    0.77    0.95
 -34  -4   1    1.47    0.83
 -34   4  -1    0.98    0.88
  34   4   2    2.37    0.85
 -34  -4   2    1.75    0.64
 -34   4  -2    1.66    0.70
 -34   5   0    2.37    0.90
 -34   5   0    0.54    0.87
 -34   5  -1    2.74    0.86
  34   5   2    1.57    0.73
 -34   5  -2    1.48    0.64
  34   6  -1    0.89    0.64
  34   6   0    0.88    0.76
 -34   6   0   -1.22    0.83
  34   6   1    0.50    0.77
 -34   6  -1    0.81    0.73
  34   7   0    0.65    0.61
  34   7   1    1.61    0.63
 -35   0   0    1.30    0.91
 -35   0   1    2.24    0.92
 -35   0   2    0.73    0.75
 -35   1   2    2.36    0.58
 -35   1   2    1.66    0.76
 -35   1   1    1.84    0.70
 -35  -1  -1    1.65    0.86
 -35   1   1    2.28    0.92
 -35  -1   0    3.31    0.89
 -35   1   0    2.13    0.95
 -35  -1   1    2.34    0.75
 -35  -1   1    2.96    0.91
 -35  -1   2    1.17    0.59
 -35  -1   2    2.63    0.71
 -35   2   1    0.91    0.63
 -35  -2  -1    1.80    0.78
 -35  -2   0    3.82    0.84
 -35  -2   1    1.16    0.69
 -35  -2   1    1.37    0.80
 -35   3   1    1.99    0.82
 -35  -3   0    2.80    0.75
 -35  -3   1    2.48    0.65
 -35   4   1    1.64    0.71
 -35   4   0    2.15    0.78
 -35   4  -1    3.08    0.72
  35   5   0    1.05    0.60
 -36   0   0    2.59    0.68
 -36   1   0    2.19    0.67


TITL 20200115-1 in P222(1)
REM P222(1) (#17, found as P2(1)22 in -cba setting)
CELL 1.54184  28.313473  18.042334   8.092925  90.0000  90.0000  90.0000
ZERR    4.00   0.002157   0.000876   0.000409   0.0000   0.0000   0.0000
LATT -1
SYMM -x,-y, z+1/2
SYMM -x, y,-z+1/2
SYMM  x,-y,-z
SFAC C H
UNIT 224.00 216.00
TREF
HKLF 4
END
_computing_structure_solution     'SHELXT 2014/4 (Sheldrick, 2014)'
_computing_structure_solution     'SHELXT 2014/4 (Sheldrick, 2014)'
_computing_structure_solution     'SHELXT 2014/4 (Sheldrick, 2014)'
;
_shelx_hkl_checksum                14976
_olex2_submission_special_instructions  'No special instructions were received'
_oxdiff_exptl_absorpt_empirical_details
;
Empirical correction (ABSPACK) includes:
- Absorption correction using spherical harmonics
- Frame scaling
;
_oxdiff_exptl_absorpt_empirical_full_max  1.557
_oxdiff_exptl_absorpt_empirical_full_min  0.700
