data_july5_nik1_fract2_0m
_audit_creation_date               2019-02-24
_audit_creation_method
;
Olex2 1.2
(compiled 2018.05.29 svn.r3508 for OlexSys, GUI svn.r5506)
;
_shelx_SHELXL_version_number       '2014/7'
_audit_contact_author_address      ?
_audit_contact_author_email        ?
_audit_contact_author_name         ''
_audit_contact_author_phone        ?
_publ_contact_author_id_orcid      ?
_publ_section_references
;
Dolomanov, O.V., Bourhis, L.J., Gildea, R.J, Howard, J.A.K. & Puschmann, H.
 (2009), J. Appl. Cryst. 42, 339-341.
;
_chemical_name_common              ?
_chemical_name_systematic          ?
_chemical_formula_moiety           'C56 H68 Sn2'
_chemical_formula_sum              'C56 H68 Sn2'
_chemical_formula_weight           978.52
_chemical_melting_point            ?
loop_
  _atom_type_symbol
  _atom_type_description
  _atom_type_scat_dispersion_real
  _atom_type_scat_dispersion_imag
  _atom_type_scat_source
 'Sn' 'Sn' -0.6537 1.4246
 'International Tables Vol C Tables 4.2.6.8 and 6.1.1.4'
 'C' 'C' 0.0033 0.0016 'International Tables Vol C Tables 4.2.6.8 and 6.1.1.4'
 'H' 'H' 0.0000 0.0000 'International Tables Vol C Tables 4.2.6.8 and 6.1.1.4'

_shelx_space_group_comment
;
The symmetry employed for this shelxl refinement is uniquely defined
by the following loop, which should always be used as a source of
symmetry information in preference to the above space-group names.
They are only intended as comments.
;
_space_group_crystal_system        'triclinic'
_space_group_IT_number             2
_space_group_name_H-M_alt          'P -1'
_space_group_name_Hall             '-P 1'
loop_
  _space_group_symop_operation_xyz
 'x, y, z'
 '-x, -y, -z'

_cell_length_a                     10.0922(6)
_cell_length_b                     11.2174(6)
_cell_length_c                     12.9069(7)
_cell_angle_alpha                  90.7726(14)
_cell_angle_beta                   102.0131(14)
_cell_angle_gamma                  114.0745(13)
_cell_volume                       1296.91(13)
_cell_formula_units_Z              1
_cell_measurement_reflns_used      4584
_cell_measurement_temperature      298(2)
_cell_measurement_theta_max        21.442
_cell_measurement_theta_min        2.273
_shelx_estimated_absorpt_T_max     21.445
_shelx_estimated_absorpt_T_min     2.274
_exptl_absorpt_coefficient_mu      0.995
_exptl_absorpt_correction_T_max    0.7456
_exptl_absorpt_correction_T_min    0.6630
_exptl_absorpt_correction_type     multi-scan
_exptl_absorpt_process_details
;
SADABS-2014/2 (Bruker,2014/2) was used for absorption correction.
wR2(int) was 0.1252 before and 0.0425 after correction.
The Ratio of minimum to maximum transmission is 0.8892.
The \l/2 correction factor is 0.00150.
;
_exptl_absorpt_special_details     ?
_exptl_crystal_colour              'pale yellow'
_exptl_crystal_density_diffrn      1.253
_exptl_crystal_density_meas        'n/a'
_exptl_crystal_density_method      'not measured'
_exptl_crystal_description         'rectangular blocks'
_exptl_crystal_F_000               504
_exptl_crystal_size_max            0.72
_exptl_crystal_size_mid            0.48
_exptl_crystal_size_min            0.17
_exptl_transmission_factor_max     ?
_exptl_transmission_factor_min     ?
_diffrn_reflns_av_R_equivalents    0.0524
_diffrn_reflns_av_unetI/netI       0.0622
_diffrn_reflns_Laue_measured_fraction_full  0.999
_diffrn_reflns_Laue_measured_fraction_max  0.995
_diffrn_reflns_limit_h_max         13
_diffrn_reflns_limit_h_min         -13
_diffrn_reflns_limit_k_max         14
_diffrn_reflns_limit_k_min         -14
_diffrn_reflns_limit_l_max         16
_diffrn_reflns_limit_l_min         -16
_diffrn_reflns_number              20016
_diffrn_reflns_point_group_measured_fraction_full  0.999
_diffrn_reflns_point_group_measured_fraction_max  0.995
_diffrn_reflns_theta_full          25.242
_diffrn_reflns_theta_max           27.546
_diffrn_reflns_theta_min           2.273
_diffrn_ambient_temperature        298.01
_diffrn_detector_area_resol_mean   ?
_diffrn_measured_fraction_theta_full  0.999
_diffrn_measured_fraction_theta_max  0.995
_diffrn_measurement_device_type    'Bruker APEX-II CCD'
_diffrn_measurement_method         '\f and \w scans'
_diffrn_radiation_type             MoK\a
_diffrn_radiation_wavelength       0.71073
_diffrn_source                     ?
_reflns_Friedel_coverage           0.000
_reflns_Friedel_fraction_full      .
_reflns_Friedel_fraction_max       .
_reflns_number_gt                  2664
_reflns_number_total               5958
_reflns_special_details
;
 Reflections were merged by SHELXL according to the crystal
 class for the calculation of statistics and refinement.
 
 _reflns_Friedel_fraction is defined as the number of unique
 Friedel pairs measured divided by the number that would be
 possible theoretically, ignoring centric projections and
 systematic absences.
;
_reflns_threshold_expression       'I > 2\s(I)'
_computing_cell_refinement         'SAINT v8.34A (Bruker, 2013)'
_computing_data_collection         ?
_computing_data_reduction          'SAINT v8.34A (Bruker, 2013)'
_computing_molecular_graphics      'Olex2 (Dolomanov et al., 2009)'
_computing_publication_material    'Olex2 (Dolomanov et al., 2009)'
_computing_structure_refinement    'ShelXL (Sheldrick, 2015)'
_computing_structure_solution      'ShelXS (Sheldrick, 2008)'
_refine_diff_density_max           0.786
_refine_diff_density_min           -0.248
_refine_diff_density_rms           0.085
_refine_ls_extinction_coef         .
_refine_ls_extinction_method       none
_refine_ls_goodness_of_fit_ref     0.973
_refine_ls_hydrogen_treatment      constr
_refine_ls_matrix_type             full
_refine_ls_number_parameters       265
_refine_ls_number_reflns           5958
_refine_ls_number_restraints       0
_refine_ls_R_factor_all            0.1558
_refine_ls_R_factor_gt             0.0646
_refine_ls_restrained_S_all        0.973
_refine_ls_shift/su_max            0.083
_refine_ls_shift/su_mean           0.020
_refine_ls_structure_factor_coef   Fsqd
_refine_ls_weighting_details      
 'w=1/[\s^2^(Fo^2^)+(0.1000P)^2^] where P=(Fo^2^+2Fc^2^)/3'
_refine_ls_weighting_scheme        calc
_refine_ls_wR_factor_gt            0.1485
_refine_ls_wR_factor_ref           0.1881
_refine_special_details            ?
_olex2_refinement_description
;
1. Fixed Uiso
 At 1.2 times of:
  All C(H) groups, All C(H,H) groups
 At 1.5 times of:
  All C(H,H,H) groups
2.a Secondary CH2 refined with riding coordinates:
 C1C(H14a,H14b), C5C(H16a,H16b), C8C(H17a,H17b), C9C(H19a,H19b), C10C(H20a,
 H20b), C2C(H3a,H3b), C11C(H8a,H8b)
2.b Aromatic/amide H refined with riding coordinates:
 C26C(H5AA), C16C(H6AA), C22C(H10), C18C(H11), C28C(H1AA), C17C(H13),
 C23C(H15), C20C(H18), C19C(H0AA), C3C(H5), C6C(H6)
2.c Idealised Me refined as rotating group:
 C4C(H7a,H7b,H7c), C7C(H9a,H9b,H9c), C12C(H12a,H12b,H12c)
;
_atom_sites_solution_hydrogens     geom
_atom_sites_solution_primary       direct
_atom_sites_solution_secondary     ?
loop_
  _atom_site_label
  _atom_site_type_symbol
  _atom_site_fract_x
  _atom_site_fract_y
  _atom_site_fract_z
  _atom_site_U_iso_or_equiv
  _atom_site_adp_type
  _atom_site_occupancy
  _atom_site_site_symmetry_order
  _atom_site_calc_flag
  _atom_site_refinement_flags_posn
  _atom_site_refinement_flags_adp
  _atom_site_refinement_flags_occupancy
  _atom_site_disorder_assembly
  _atom_site_disorder_group
 Sn1 Sn 0.90847(5) 0.51359(5) 0.23833(3) 0.1074(3) Uani 1 1 d . . . . .
 C1 C 0.5478(7) 0.6228(5) 0.4562(4) 0.0853(15) Uani 1 1 d . . . . .
 C2 C 0.5570(6) 0.4069(5) 0.4791(4) 0.0789(14) Uani 1 1 d . . . . .
 C2AA C 0.6147(7) 0.3142(5) 0.4578(5) 0.0896(16) Uani 1 1 d . . . . .
 C4 C 0.7799(8) 0.2472(6) 0.3729(6) 0.0999(18) Uani 1 1 d . . . . .
 C3AA C 0.6052(6) 0.5269(5) 0.4341(4) 0.0786(14) Uani 1 1 d . . . . .
 C4AA C 0.7184(6) 0.3435(5) 0.3919(4) 0.0856(15) Uani 1 1 d . . . . .
 C5AA C 0.7031(6) 0.5497(5) 0.3708(4) 0.0875(15) Uani 1 1 d . . . . .
 H5AA H 0.7341 0.6293 0.3419 0.105 Uiso 1 1 calc R . . . .
 C6AA C 0.7177(10) 0.1586(7) 0.2842(6) 0.126(2) Uani 1 1 d . . . . .
 H6AA H 0.6349 0.1567 0.2351 0.151 Uiso 1 1 calc R . . . .
 C7AA C 0.7610(6) 0.4596(6) 0.3459(4) 0.0852(14) Uani 1 1 d . . . . .
 C10 C 0.5657(9) 0.1956(6) 0.5034(6) 0.118(2) Uani 1 1 d . . . . .
 H10 H 0.6032 0.1348 0.4913 0.141 Uiso 1 1 calc R . . . .
 C11 C 0.8930(16) 0.0687(11) 0.3376(13) 0.171(5) Uani 1 1 d . . . . .
 H11 H 0.9293 0.0066 0.3270 0.205 Uiso 1 1 calc R . . . .
 C1AA C 0.5925(8) 0.7422(6) 0.4155(6) 0.115(2) Uani 1 1 d . . . . .
 H1AA H 0.6623 0.7636 0.3739 0.137 Uiso 1 1 calc R . . . .
 C13 C 0.7801(15) 0.0693(9) 0.2669(10) 0.159(4) Uani 1 1 d . . . . .
 H13 H 0.7403 0.0109 0.2051 0.190 Uiso 1 1 calc R . . . .
 C14 C 1.1082(8) 0.4884(8) 0.2916(8) 0.145(3) Uani 1 1 d . . . . .
 H14A H 1.1930 0.5730 0.3004 0.175 Uiso 1 1 calc R . . . .
 H14B H 1.1090 0.4552 0.3607 0.175 Uiso 1 1 calc R . . . .
 C15 C 0.4659(9) 0.1676(7) 0.5640(7) 0.141(3) Uani 1 1 d . . . . .
 H15 H 0.4351 0.0879 0.5928 0.169 Uiso 1 1 calc R . . . .
 C16 C 0.7879(11) 0.3997(10) 0.0867(6) 0.156(3) Uani 1 1 d . . . . .
 H16A H 0.8405 0.4421 0.0332 0.187 Uiso 1 1 calc R . . . .
 H16B H 0.7899 0.3140 0.0898 0.187 Uiso 1 1 calc R . . . .
 C17 C 0.6366(13) 0.3808(12) 0.0523(8) 0.188(4) Uani 1 1 d . . . . .
 H17A H 0.6337 0.4647 0.0394 0.226 Uiso 1 1 calc R . . . .
 H17B H 0.5853 0.3473 0.1085 0.226 Uiso 1 1 calc R . . . .
 C18 C 0.8993(11) 0.2459(8) 0.4438(8) 0.149(3) Uani 1 1 d . . . . .
 H18 H 0.9413 0.3056 0.5048 0.179 Uiso 1 1 calc R . . . .
 C19 C 0.9653(12) 0.7134(10) 0.2269(9) 0.176(4) Uani 1 1 d . . . . .
 H19A H 0.8757 0.7252 0.1963 0.211 Uiso 1 1 calc R . . . .
 H19B H 1.0066 0.7606 0.2979 0.211 Uiso 1 1 calc R . . . .
 C20 C 1.0784(19) 0.7720(13) 0.1588(13) 0.261(8) Uani 1 1 d . . . . .
 H20A H 1.1612 0.7489 0.1848 0.314 Uiso 1 1 calc R . . . .
 H20B H 1.0315 0.7293 0.0866 0.314 Uiso 1 1 calc R . . . .
 C3 C 1.1243(10) 0.3954(10) 0.2158(9) 0.167(3) Uani 1 1 d . . . . .
 H3A H 1.0381 0.3116 0.2063 0.201 Uiso 1 1 calc R . . . .
 H3B H 1.1237 0.4294 0.1470 0.201 Uiso 1 1 calc R . . . .
 C0AA C 0.9603(13) 0.1591(12) 0.4285(11) 0.182(4) Uani 1 1 d . . . . .
 H0AA H 1.0434 0.1608 0.4771 0.219 Uiso 1 1 calc R . . . .
 C5 C 1.2571(13) 0.3736(14) 0.2487(13) 0.216(5) Uani 1 1 d . . . . .
 H5 H 1.3308 0.4185 0.3096 0.259 Uiso 1 1 calc R . . . .
 C6 C 0.5500(18) 0.279(2) -0.0555(14) 0.300(12) Uani 1 1 d . . . . .
 H6 H 0.5909 0.2294 -0.0840 0.360 Uiso 1 1 calc R . . . .
 C7 C 1.2667(15) 0.2794(15) 0.1819(13) 0.263(7) Uani 1 1 d . . . . .
 H7A H 1.1699 0.2268 0.1372 0.394 Uiso 1 1 calc GR . . . .
 H7B H 1.3022 0.2241 0.2244 0.394 Uiso 1 1 calc GR . . . .
 H7C H 1.3348 0.3227 0.1382 0.394 Uiso 1 1 calc GR . . . .
 C8 C 1.137(3) 0.9076(18) 0.154(2) 0.413(18) Uani 1 1 d . . . . .
 H8A H 1.2122 0.9521 0.2188 0.496 Uiso 1 1 calc R . . . .
 H8B H 1.0583 0.9374 0.1481 0.496 Uiso 1 1 calc R . . . .
 C9 C 0.434(3) 0.274(2) -0.0936(18) 0.353(14) Uani 1 1 d . . . . .
 H9A H 0.3683 0.1861 -0.1253 0.530 Uiso 1 1 calc GR . . . .
 H9B H 0.4418 0.3332 -0.1475 0.530 Uiso 1 1 calc GR . . . .
 H9C H 0.3937 0.2987 -0.0398 0.530 Uiso 1 1 calc GR . . . .
 C12 C 1.209(3) 0.9429(17) 0.055(2) 0.49(2) Uani 1 1 d . . . . .
 H12A H 1.1349 0.8973 -0.0088 0.734 Uiso 1 1 calc GR . . . .
 H12B H 1.2897 0.9169 0.0628 0.734 Uiso 1 1 calc GR . . . .
 H12C H 1.2459 1.0359 0.0514 0.734 Uiso 1 1 calc GR . . . .

loop_
  _atom_site_aniso_label
  _atom_site_aniso_U_11
  _atom_site_aniso_U_22
  _atom_site_aniso_U_33
  _atom_site_aniso_U_23
  _atom_site_aniso_U_13
  _atom_site_aniso_U_12
 Sn1 0.1045(4) 0.1348(5) 0.1010(4) 0.0122(3) 0.0543(3) 0.0538(3)
 C1 0.103(4) 0.080(4) 0.090(4) 0.014(3) 0.046(3) 0.045(3)
 C2 0.093(4) 0.080(3) 0.076(3) 0.004(3) 0.034(3) 0.041(3)
 C2AA 0.105(4) 0.081(4) 0.100(4) 0.008(3) 0.045(3) 0.047(3)
 C4 0.109(5) 0.091(4) 0.118(5) 0.004(4) 0.051(4) 0.049(4)
 C3AA 0.092(4) 0.078(3) 0.075(3) 0.008(3) 0.035(3) 0.038(3)
 C4AA 0.098(4) 0.086(4) 0.085(3) 0.001(3) 0.039(3) 0.043(3)
 C5AA 0.098(4) 0.095(4) 0.089(4) 0.019(3) 0.046(3) 0.048(3)
 C6AA 0.154(6) 0.102(5) 0.133(6) 0.003(4) 0.066(5) 0.050(5)
 C7AA 0.086(4) 0.097(4) 0.085(3) 0.008(3) 0.037(3) 0.043(3)
 C10 0.158(6) 0.094(4) 0.146(6) 0.028(4) 0.091(5) 0.071(4)
 C11 0.215(12) 0.130(8) 0.258(15) 0.065(9) 0.161(12) 0.108(9)
 C1AA 0.147(6) 0.089(4) 0.148(6) 0.030(4) 0.095(5) 0.060(4)
 C13 0.215(11) 0.104(6) 0.194(10) 0.010(6) 0.114(9) 0.073(7)
 C14 0.111(6) 0.174(8) 0.166(7) -0.001(6) 0.044(5) 0.069(6)
 C15 0.187(8) 0.096(5) 0.201(8) 0.057(5) 0.128(7) 0.078(5)
 C16 0.145(7) 0.236(10) 0.097(5) 0.005(5) 0.047(5) 0.081(7)
 C17 0.175(10) 0.236(12) 0.147(8) -0.024(8) 0.012(8) 0.093(9)
 C18 0.167(8) 0.156(7) 0.167(8) -0.008(6) 0.032(7) 0.114(7)
 C19 0.170(8) 0.207(10) 0.184(9) 0.051(7) 0.106(7) 0.081(7)
 C20 0.327(19) 0.190(12) 0.35(2) 0.117(13) 0.229(18) 0.117(12)
 C3 0.132(7) 0.176(8) 0.220(10) -0.004(7) 0.054(7) 0.085(6)
 C0AA 0.185(9) 0.184(10) 0.241(13) 0.025(9) 0.083(9) 0.123(9)
 C5 0.147(9) 0.252(13) 0.256(14) -0.056(11) 0.017(9) 0.106(9)
 C6 0.207(15) 0.48(3) 0.203(14) -0.106(16) -0.073(13) 0.196(19)
 C7 0.221(13) 0.294(16) 0.324(18) -0.065(14) 0.069(13) 0.159(13)
 C8 0.48(3) 0.239(18) 0.69(5) 0.22(2) 0.47(4) 0.153(19)
 C9 0.37(3) 0.35(3) 0.30(3) -0.13(2) -0.02(2) 0.17(3)
 C12 0.64(5) 0.224(18) 0.70(5) 0.07(2) 0.52(4) 0.10(2)

_geom_special_details
;
 All esds (except the esd in the dihedral angle between two l.s. planes)
 are estimated using the full covariance matrix.  The cell esds are taken
 into account individually in the estimation of esds in distances, angles
 and torsion angles; correlations between esds in cell parameters are only
 used when they are defined by crystal symmetry.  An approximate (isotropic)
 treatment of cell esds is used for estimating esds involving l.s. planes.
;
loop_
  _geom_bond_atom_site_label_1
  _geom_bond_atom_site_label_2
  _geom_bond_distance
  _geom_bond_site_symmetry_2
  _geom_bond_publ_flag
 Sn1 C7AA 2.157(5) . ?
 Sn1 C14 2.123(7) . ?
 Sn1 C16 2.149(8) . ?
 Sn1 C19 2.091(10) . ?
 C1 C2 1.419(7) 2_666 ?
 C1 C3AA 1.464(7) . ?
 C1 C1AA 1.378(8) . ?
 C2 C1 1.419(7) 2_666 ?
 C2 C2AA 1.431(7) . ?
 C2 C3AA 1.411(7) . ?
 C2AA C4AA 1.423(8) . ?
 C2AA C10 1.402(8) . ?
 C4 C4AA 1.488(8) . ?
 C4 C6AA 1.362(10) . ?
 C4 C18 1.357(10) . ?
 C3AA C5AA 1.358(7) . ?
 C4AA C7AA 1.381(8) . ?
 C5AA C7AA 1.421(7) . ?
 C6AA C13 1.420(12) . ?
 C10 C15 1.342(9) . ?
 C11 C13 1.305(14) . ?
 C11 C0AA 1.393(16) . ?
 C1AA C15 1.409(8) 2_666 ?
 C14 C3 1.500(11) . ?
 C15 C1AA 1.409(8) 2_666 ?
 C16 C17 1.423(13) . ?
 C17 C6 1.623(18) . ?
 C18 C0AA 1.379(12) . ?
 C19 C20 1.527(14) . ?
 C20 C8 1.397(18) . ?
 C3 C5 1.439(13) . ?
 C5 C7 1.402(15) . ?
 C6 C9 1.15(2) . ?
 C8 C12 1.57(2) . ?

loop_
  _geom_angle_atom_site_label_1
  _geom_angle_atom_site_label_2
  _geom_angle_atom_site_label_3
  _geom_angle
  _geom_angle_site_symmetry_1
  _geom_angle_site_symmetry_3
  _geom_angle_publ_flag
 C14 Sn1 C7AA 114.6(3) . . ?
 C14 Sn1 C16 109.6(3) . . ?
 C16 Sn1 C7AA 108.3(3) . . ?
 C19 Sn1 C7AA 105.0(3) . . ?
 C19 Sn1 C14 108.4(4) . . ?
 C19 Sn1 C16 111.0(4) . . ?
 C2 C1 C3AA 119.8(5) 2_666 . ?
 C1AA C1 C2 118.5(5) . 2_666 ?
 C1AA C1 C3AA 121.7(5) . . ?
 C1 C2 C2AA 120.2(5) 2_666 . ?
 C3AA C2 C1 121.0(5) . 2_666 ?
 C3AA C2 C2AA 118.9(5) . . ?
 C4AA C2AA C2 120.1(5) . . ?
 C10 C2AA C2 118.0(5) . . ?
 C10 C2AA C4AA 121.9(5) . . ?
 C6AA C4 C4AA 120.7(7) . . ?
 C6AA C4 C18 118.6(7) . . ?
 C18 C4 C4AA 120.7(6) . . ?
 C2 C3AA C1 119.3(4) . . ?
 C5AA C3AA C1 121.9(5) . . ?
 C5AA C3AA C2 118.9(5) . . ?
 C2AA C4AA C4 119.2(5) . . ?
 C7AA C4AA C2AA 120.4(5) . . ?
 C7AA C4AA C4 120.4(5) . . ?
 C3AA C5AA C7AA 124.2(5) . . ?
 C4 C6AA C13 119.6(9) . . ?
 C4AA C7AA Sn1 124.7(4) . . ?
 C4AA C7AA C5AA 117.6(5) . . ?
 C5AA C7AA Sn1 117.7(4) . . ?
 C15 C10 C2AA 121.6(6) . . ?
 C13 C11 C0AA 121.4(10) . . ?
 C1 C1AA C15 121.0(6) . 2_666 ?
 C11 C13 C6AA 120.2(11) . . ?
 C3 C14 Sn1 112.5(6) . . ?
 C10 C15 C1AA 120.7(6) . 2_666 ?
 C17 C16 Sn1 116.2(7) . . ?
 C16 C17 C6 112.2(10) . . ?
 C4 C18 C0AA 122.4(9) . . ?
 C20 C19 Sn1 112.6(8) . . ?
 C8 C20 C19 118.1(13) . . ?
 C5 C3 C14 114.8(9) . . ?
 C18 C0AA C11 117.6(11) . . ?
 C7 C5 C3 114.8(12) . . ?
 C9 C6 C17 114.4(19) . . ?
 C20 C8 C12 110.2(17) . . ?

_shelx_res_file
;
    july5_nik1_fract2_0m.res created by SHELXL-2014/7

TITL July5_Nik1_fract2_0m in P-1 #2
REM reset to P-1 #2
CELL 0.71073 10.0922 11.2174 12.9069 90.7726 102.0131 114.0745
ZERR 1 0.0006 0.0006 0.0007 0.0014 0.0014 0.0013
LATT 1
SFAC Sn C H
UNIT 1 1 1

L.S. 10 0 0
PLAN  5
TEMP 24.86
BOND
fmap 2 53
acta
REM <olex2.extras>
REM <HklSrc "%.\\July5_Nik1_fract2_0m.hkl">
REM </olex2.extras>

WGHT    0.100000
FVAR       0.43765
SN1   1    0.908475    0.513590    0.238334    11.00000    0.10454    0.13477 =
         0.10099    0.01215    0.05432    0.05378
C1    2    0.547792    0.622784    0.456188    11.00000    0.10336    0.07999 =
         0.09020    0.01429    0.04590    0.04476
C2    2    0.557004    0.406877    0.479112    11.00000    0.09256    0.08033 =
         0.07570    0.00433    0.03410    0.04132
C2AA  2    0.614681    0.314188    0.457760    11.00000    0.10538    0.08133 =
         0.09981    0.00833    0.04481    0.04682
C4    2    0.779942    0.247197    0.372925    11.00000    0.10937    0.09116 =
         0.11797    0.00415    0.05114    0.04909
C3AA  2    0.605231    0.526902    0.434117    11.00000    0.09220    0.07827 =
         0.07521    0.00839    0.03491    0.03813
C4AA  2    0.718427    0.343494    0.391913    11.00000    0.09837    0.08593 =
         0.08484    0.00098    0.03910    0.04284
C5AA  2    0.703073    0.549696    0.370769    11.00000    0.09828    0.09458 =
         0.08921    0.01925    0.04609    0.04797
AFIX  43
H5AA  3    0.734097    0.629345    0.341861    11.00000   -1.20000
AFIX   0
C6AA  2    0.717748    0.158644    0.284166    11.00000    0.15429    0.10212 =
         0.13272    0.00302    0.06649    0.05043
AFIX  43
H6AA  3    0.634899    0.156695    0.235104    11.00000   -1.20000
AFIX   0
C7AA  2    0.761042    0.459641    0.345851    11.00000    0.08606    0.09727 =
         0.08543    0.00795    0.03695    0.04340
C10   2    0.565706    0.195563    0.503355    11.00000    0.15785    0.09450 =
         0.14581    0.02843    0.09105    0.07073
AFIX  43
H10   3    0.603242    0.134791    0.491285    11.00000   -1.20000
AFIX   0
C11   2    0.892992    0.068693    0.337570    11.00000    0.21493    0.12963 =
         0.25760    0.06520    0.16081    0.10831
AFIX  43
H11   3    0.929298    0.006580    0.326990    11.00000   -1.20000
AFIX   0
C1AA  2    0.592505    0.742169    0.415489    11.00000    0.14660    0.08917 =
         0.14792    0.03034    0.09477    0.05985
AFIX  43
H1AA  3    0.662274    0.763565    0.373875    11.00000   -1.20000
AFIX   0
C13   2    0.780101    0.069272    0.266928    11.00000    0.21518    0.10360 =
         0.19446    0.01030    0.11389    0.07252
AFIX  43
H13   3    0.740330    0.010949    0.205066    11.00000   -1.20000
AFIX   0
C14   2    1.108173    0.488372    0.291624    11.00000    0.11113    0.17440 =
         0.16568   -0.00146    0.04444    0.06936
AFIX  23
H14A  3    1.192985    0.573029    0.300380    11.00000   -1.20000
H14B  3    1.109026    0.455234    0.360675    11.00000   -1.20000
AFIX   0
C15   2    0.465948    0.167648    0.564001    11.00000    0.18733    0.09561 =
         0.20054    0.05690    0.12765    0.07803
AFIX  43
H15   3    0.435067    0.087920    0.592798    11.00000   -1.20000
AFIX   0
C16   2    0.787927    0.399666    0.086686    11.00000    0.14463    0.23642 =
         0.09684    0.00522    0.04735    0.08093
AFIX  23
H16A  3    0.840528    0.442121    0.033173    11.00000   -1.20000
H16B  3    0.789901    0.314037    0.089771    11.00000   -1.20000
AFIX   0
C17   2    0.636630    0.380764    0.052307    11.00000    0.17531    0.23585 =
         0.14668   -0.02445    0.01158    0.09294
AFIX  23
H17A  3    0.633713    0.464740    0.039372    11.00000   -1.20000
H17B  3    0.585269    0.347264    0.108502    11.00000   -1.20000
AFIX   0
C18   2    0.899253    0.245870    0.443766    11.00000    0.16704    0.15624 =
         0.16748   -0.00811    0.03172    0.11427
AFIX  43
H18   3    0.941341    0.305649    0.504809    11.00000   -1.20000
AFIX   0
C19   2    0.965303    0.713421    0.226929    11.00000    0.17046    0.20667 =
         0.18442    0.05062    0.10629    0.08148
AFIX  23
H19A  3    0.875705    0.725170    0.196343    11.00000   -1.20000
H19B  3    1.006597    0.760607    0.297897    11.00000   -1.20000
AFIX   0
C20   2    1.078390    0.771995    0.158754    11.00000    0.32686    0.18972 =
         0.35124    0.11654    0.22860    0.11743
AFIX  23
H20A  3    1.161222    0.748900    0.184778    11.00000   -1.20000
H20B  3    1.031496    0.729310    0.086566    11.00000   -1.20000
AFIX   0
C3    2    1.124272    0.395396    0.215760    11.00000    0.13172    0.17560 =
         0.22039   -0.00381    0.05359    0.08457
AFIX  23
H3A   3    1.038085    0.311587    0.206321    11.00000   -1.20000
H3B   3    1.123706    0.429396    0.147044    11.00000   -1.20000
AFIX   0
C0AA  2    0.960271    0.159063    0.428453    11.00000    0.18472    0.18397 =
         0.24115    0.02503    0.08345    0.12322
AFIX  43
H0AA  3    1.043378    0.160800    0.477074    11.00000   -1.20000
AFIX   0
C5    2    1.257085    0.373597    0.248725    11.00000    0.14668    0.25159 =
         0.25559   -0.05598    0.01736    0.10575
AFIX  43
H5    3    1.330770    0.418502    0.309620    11.00000   -1.20000
AFIX   0
C6    2    0.550035    0.279225   -0.055456    11.00000    0.20656    0.47987 =
         0.20284   -0.10632   -0.07341    0.19635
AFIX  43
H6    3    0.590888    0.229359   -0.084040    11.00000   -1.20000
AFIX   0
C7    2    1.266735    0.279359    0.181864    11.00000    0.22066    0.29408 =
         0.32443   -0.06539    0.06947    0.15912
AFIX 137
H7A   3    1.169868    0.226753    0.137224    11.00000   -1.50000
H7B   3    1.302179    0.224119    0.224400    11.00000   -1.50000
H7C   3    1.334765    0.322685    0.138189    11.00000   -1.50000
AFIX   0
C8    2    1.137078    0.907612    0.153919    11.00000    0.47882    0.23936 =
         0.69087    0.22112    0.47275    0.15287
AFIX  23
H8A   3    1.212167    0.952116    0.218813    11.00000   -1.20000
H8B   3    1.058321    0.937359    0.148085    11.00000   -1.20000
AFIX   0
C9    2    0.433560    0.274112   -0.093609    11.00000    0.37121    0.35450 =
         0.29843   -0.12989   -0.01923    0.16857
AFIX 137
H9A   3    0.368293    0.186135   -0.125280    11.00000   -1.50000
H9B   3    0.441768    0.333236   -0.147471    11.00000   -1.50000
H9C   3    0.393693    0.298711   -0.039824    11.00000   -1.50000
AFIX   0
C12   2    1.208866    0.942867    0.055216    11.00000    0.63581    0.22430 =
         0.70074    0.07012    0.52310    0.09645
AFIX 137
H12A  3    1.134858    0.897333   -0.008782    11.00000   -1.50000
H12B  3    1.289742    0.916942    0.062763    11.00000   -1.50000
H12C  3    1.245864    1.035869    0.051354    11.00000   -1.50000
AFIX   0
HKLF 4

REM  July5_Nik1_fract2_0m in P-1 #2
REM R1 =  0.0646 for    2664 Fo > 4sig(Fo)  and  0.1558 for all    5958 data
REM    265 parameters refined using      0 restraints

END

WGHT      0.0950      0.0000

REM Highest difference peak  0.786,  deepest hole -0.248,  1-sigma level  0.085
Q1    1   0.9676  0.6070  0.2788  11.00000  0.05    0.79
Q2    1   0.8103  0.5059  0.2294  11.00000  0.05    0.57
Q3    1   0.8124  0.4415  0.1799  11.00000  0.05    0.52
Q4    1   0.8935  0.4843  0.1788  11.00000  0.05    0.51
Q5    1   1.0150  0.5220  0.2596  11.00000  0.05    0.48
;
_shelx_res_checksum                72541
_shelx_hkl_file
;
  -1   0   0 822.842 21.0260   2
  -1   0   0 843.754 20.9952   3
  -1   0   0 877.298 21.2806   4
   1   0   0 831.096 21.3227   3
   1   0   0 815.948 21.2028   4
  -2   0   0 97.1750 3.29035   2
  -2   0   0 103.033 3.23211   4
  -2   0   0 104.035 3.43765   1
   2   0   0 93.2519 3.19705   4
   2   0   0 103.760 3.03454   3
   2   0   0 100.835 3.04934   3
   2   0   0 94.4925 3.31008   1
   2   0   0 99.4139 2.99399   2
  -3   0   0 54.4898 2.37435   4
  -3   0   0 57.0064 2.25395   2
  -3   0   0 58.5096 2.77202   1
   3   0   0 56.5569 2.26080   3
   3   0   0 55.1622 2.14243   3
   3   0   0 51.7817 2.12319   2
  -4   0   0 183.896 6.38679   1
  -4   0   0 189.383 5.87094   2
   4   0   0 187.472 6.12449   4
   4   0   0 184.704 5.63815   3
  -5   0   0 231.970 7.29915   2
  -5   0   0 231.801 8.05881   1
   5   0   0 231.085 7.67611   4
   5   0   0 231.073 7.00353   3
  -6   0   0 257.518 9.27781   1
  -6   0   0 280.726 8.68688   2
   6   0   0 266.861 8.99047   4
   6   0   0 265.600 8.14632   3
  -7   0   0 10.2076 3.40730   1
  -7   0   0 14.2388 2.82724   2
   7   0   0 13.3007 2.20371   3
   7   0   0 14.0453 3.12948   4
  -8   0   0 -0.9399 2.76994   2
  -8   0   0 4.60049 3.51277   1
   8   0   0 -4.3538 2.03872   3
   8   0   0 -1.3552 3.02638   4
  -9   0   0 5.37392 3.66726   2
  -9   0   0 1.20415 4.08187   1
   9   0   0 2.23360 3.29070   4
   9   0   0 5.46688 2.61552   3
 -10   0   0 2.95379 4.95435   1
 -10   0   0 -8.0748 4.76626   2
  10   0   0 7.54608 4.14710   4
  11   0   0 0.55695 4.59038   4
  11  -1   0 3.49162 4.77182   4
 -11   1   0 4.25255 5.50973   1
 -11   1   0 -7.0856 6.58405   2
  10  -1   0 0.83670 3.48085   3
  10  -1   0 -2.5465 3.76665   4
 -10   1   0 2.09747 4.92226   1
 -10   1   0 5.84541 4.87917   2
   9  -1   0 6.90292 3.53306   4
   9  -1   0 4.17105 2.94083   3
  -9   1   0 5.17750 4.34303   1
  -9   1   0 3.19338 3.22965   2
   8  -1   0 -1.6585 2.20166   3
   8  -1   0 -3.8224 2.74928   4
  -8   1   0 4.58195 3.34261   1
  -8   1   0 -0.4565 2.58241   2
   7  -1   0 20.3684 2.60368   3
   7  -1   0 19.6544 3.21327   4
  -7   1   0 24.1666 2.83362   2
  -7   1   0 20.0964 3.01477   4
  -7   1   0 17.6305 3.84970   1
   6  -1   0 170.557 5.97987   3
  -6   1   0 171.184 6.75690   1
  -6   1   0 168.828 5.98906   2
  -6   1   0 161.226 6.22350   4
   5  -1   0 273.241 8.15496   3
  -5   1   0 260.866 8.38272   4
  -5   1   0 264.568 7.97992   2
  -5   1   0 261.727 8.60344   1
   4  -1   0 435.705 12.0954   3
  -4   1   0 439.232 11.9045   2
  -4   1   0 425.086 12.4203   1
  -4   1   0 447.260 12.3462   4
   3  -1   0 14.4862 1.55573   3
   3  -1   0 11.7014 1.12246   2
  -3   1   0 12.8923 1.38424   3
  -3   1   0 16.5097 1.14163   2
  -3   1   0 15.0414 1.40826   1
  -3   1   0 12.8916 1.26086   4
   2  -1   0 159.938 4.67517   3
   2  -1   0 157.235 4.44790   2
   2  -1   0 158.421 4.66883   4
   2  -1   0 154.585 4.56220   1
  -2   1   0 154.159 4.66299   4
  -2   1   0 159.593 4.65999   3
  -2   1   0 147.131 4.79690   1
  -2   1   0 166.053 4.48523   2
   1  -1   0 1560.90 38.2646   3
   1  -1   0 1469.89 38.1491   4
   1  -1   0 1487.64 38.4750   1
  -1   1   0 1644.29 38.7211   4
  -1   1   0 1495.92 38.1071   1
  -1   1   0 1520.56 38.2246   2
  -1  -1   0 14.2511 0.86755   4
  -1  -1   0 14.5967 0.94097   2
  -1  -1   0 15.5130 1.11241   1
   1   1   0 16.4594 1.11715   1
   1   1   0 13.9604 0.75533   2
   1   1   0 14.2344 0.83546   4
  -2  -1   0 39.4220 1.67349   2
  -2  -1   0 40.9680 2.11378   1
   2   1   0 39.4610 1.32558   3
   2   1   0 40.1865 1.77671   4
   2   1   0 43.2529 1.42458   3
   2   1   0 37.7832 1.57291   2
  -3  -1   0 0.48453 1.06669   1
  -3  -1   0 1.99604 0.86210   2
   3   1   0 3.58468 0.87591   4
   3   1   0 1.02146 0.82674   3
  -4  -1   0 151.047 5.75981   1
  -4  -1   0 148.255 5.02402   2
   4   1   0 147.914 4.43257   3
   4   1   0 150.209 5.20634   4
   4   1   0 142.766 4.64329   3
  -5  -1   0 163.450 6.54867   1
  -5  -1   0 154.427 5.59584   2
   5   1   0 163.693 5.87572   4
   5   1   0 159.744 4.94665   3
  -6  -1   0 131.308 6.54008   1
  -6  -1   0 138.419 5.49797   2
   6   1   0 129.693 4.49021   3
   6   1   0 125.834 6.11305   4
  -7  -1   0 10.7918 2.81428   2
  -7  -1   0 9.03634 3.49495   1
   7   1   0 9.89504 2.88681   4
   7   1   0 12.3858 1.88975   3
  -8  -1   0 -2.5175 3.32287   1
  -8  -1   0 -5.6536 3.80117   2
   8   1   0 -1.0837 2.78221   4
   8   1   0 1.34684 2.19099   3
  -9  -1   0 2.99714 4.77892   1
  -9  -1   0 4.75164 4.38923   2
   9   1   0 1.92648 3.10415   4
 -10  -1   0 6.93868 5.48209   1
 -10  -1   0 2.87366 5.21964   2
  10   1   0 0.10822 4.07991   4
 -11  -1   0 -4.7312 6.32788   1
  11   1   0 -3.4036 4.61347   4
  12  -2   0 -3.8827 5.50914   4
 -12   2   0 -15.640 13.0516   1
  11  -2   0 4.00692 4.41865   4
  11  -2   0 7.74493 4.57333   3
 -11   2   0 3.67961 5.42830   2
 -11   2   0 -1.6775 5.53492   1
  10  -2   0 1.49330 3.79573   4
  10  -2   0 3.95714 4.09350   3
 -10   2   0 7.13919 5.19939   1
 -10   2   0 4.95806 4.49617   2
   9  -2   0 6.98375 3.19285   3
   9  -2   0 8.02231 3.31032   4
  -9   2   0 8.33455 4.20697   1
  -9   2   0 7.06898 3.28107   2
   8  -2   0 -1.5725 2.26789   3
  -8   2   0 0.54448 3.36271   1
  -8   2   0 -1.4157 2.57941   4
  -8   2   0 4.51773 2.19629   2
   7  -2   0 20.3020 2.72302   3
  -7   2   0 20.5341 2.59138   2
  -7   2   0 20.6778 3.17510   4
  -7   2   0 23.1377 3.46989   1
   6  -2   0 78.9258 3.88808   3
  -6   2   0 81.3615 3.57269   2
  -6   2   0 79.0227 4.17978   1
  -6   2   0 71.3604 3.91921   4
   5  -2   0 553.370 15.3858   3
  -5   2   0 543.433 15.4225   1
  -5   2   0 540.313 15.4819   4
  -5   2   0 557.763 14.9859   2
  -4   2   0 910.947 23.9505   1
  -4   2   0 882.688 24.0322   4
  -4   2   0 918.344 23.5970   2
  -4   2   0 938.428 24.0169   3
   3  -2   0 317.461 9.04087   1
   3  -2   0 330.970 9.09401   2
   3  -2   0 336.524 9.12831   2
  -3   2   0 344.347 9.43881   4
  -3   2   0 329.420 9.41986   3
  -3   2   0 344.199 9.18974   1
   2  -2   0 726.680 18.3396   1
   2  -2   0 694.859 18.7028   4
   2  -2   0 736.810 18.6409   2
  -2   2   0 733.818 18.9148   3
  -2   2   0 738.146 18.8044   4
  -2   2   0 723.032 18.6616   2
  -2   2   0 740.152 18.4074   1
   1  -2   0 401.695 10.4625   3
   1  -2   0 380.618 10.2161   4
   1  -2   0 390.369 10.2523   2
  -1   2   0 381.773 10.2869   2
  -1   2   0 422.551 9.91462   1
  -1   2   0 395.009 10.4612   3
   0  -2   0 444.394 11.4983   1
   0  -2   0 439.288 11.4301   2
   0  -2   0 447.740 11.3245   3
   0   2   0 420.949 11.4241   2
   0   2   0 437.133 11.4867   1
   0   2   0 458.815 11.3420   3
   0   2   0 440.592 11.3839   4
  -1  -2   0 2591.49 63.7245   2
  -1  -2   0 2582.42 64.1077   1
   1   2   0 2605.26 63.7213   4
   1   2   0 2438.59 64.0469   1
  -2  -2   0 197.116 5.94424   2
  -2  -2   0 206.559 6.56234   1
   2   2   0 210.555 6.05225   4
  -3  -2   0 -2.7525 1.24676   1
  -3  -2   0 0.92803 0.93360   2
   3   2   0 0.66394 0.91031   4
   3   2   0 -0.9543 0.65252   3
   3   2   0 0.22104 0.36884   3
  -4  -2   0 33.3254 2.91702   1
  -4  -2   0 43.5019 2.63515   2
   4   2   0 39.4100 1.95012   3
   4   2   0 39.9070 1.74954   3
   4   2   0 40.7398 2.37146   4
  -5  -2   0 100.940 4.38655   2
  -5  -2   0 99.8527 4.99756   1
   5   2   0 95.8079 3.07799   3
   5   2   0 98.5669 4.30013   4
   5   2   0 89.6911 3.51107   3
  -6  -2   0 67.0258 3.93145   2
   6   2   0 59.8164 2.55753   3
   6   2   0 60.6124 4.09507   4
  -7  -2   0 9.06815 3.55328   1
   7   2   0 9.21439 2.73572   4
   7   2   0 9.98112 1.72987   3
  -8  -2   0 -3.8721 4.02216   1
  -8  -2   0 -1.7273 6.89183   2
   8   2   0 1.01695 3.25686   4
  -9  -2   0 0.03545 4.70588   2
  -9  -2   0 -4.4223 4.11591   1
   9   2   0 3.83572 3.46534   4
 -10  -2   0 7.40664 6.16577   2
  10   2   0 1.67769 4.45998   4
  12  -3   0 1.83322 6.13628   4
  12  -3   0 1.59435 5.47200   3
 -12   3   0 -7.1170 6.77804   1
  11  -3   0 1.49670 4.73134   3
  11  -3   0 2.75854 4.37877   4
 -11   3   0 -3.9389 5.67890   1
  10  -3   0 13.1908 3.81886   3
 -10   3   0 12.2510 3.87508   2
 -10   3   0 11.5424 3.79792   4
 -10   3   0 8.89067 5.02271   1
   9  -3   0 12.1149 3.66674   3
  -9   3   0 15.1680 4.42378   1
  -9   3   0 8.83243 3.49703   4
  -9   3   0 13.5995 3.16647   2
  -8   3   0 2.36358 2.37746   2
   7  -3   0 14.4494 2.54734   3
  -7   3   0 18.3514 2.40257   2
  -7   3   0 19.8145 3.10899   1
  -7   3   0 18.8703 2.91385   4
   6  -3   0 77.7549 3.93667   3
   6  -3   0 78.3123 3.54474   2
  -6   3   0 78.5067 3.97038   1
  -6   3   0 81.6100 4.01599   4
   5  -3   0 361.269 10.3584   2
  -5   3   0 360.320 10.8360   4
  -5   3   0 369.914 10.8388   3
  -5   3   0 353.854 10.5474   1
   4  -3   0 604.948 16.0851   2
  -4   3   0 611.611 16.0533   1
  -4   3   0 608.400 16.5484   3
  -4   3   0 585.370 16.4536   4
   3  -3   0 348.832 9.23873   2
   3  -3   0 333.625 8.80061   1
  -3   3   0 345.056 9.51717   4
  -3   3   0 337.184 9.64777   3
  -3   3   0 308.676 9.32564   1
   2  -3   0 93.7568 2.44503   1
   2  -3   0 95.9391 3.02810   2
  -2   3   0 91.6640 3.36274   3
  -2   3   0 84.4794 3.07588   2
  -2   3   0 92.2932 2.47760   1
   1  -3   0 1138.41 29.1916   2
   1  -3   0 1123.68 29.3389   3
  -1   3   0 1215.60 28.8893   1
  -1   3   0 1166.99 29.3541   3
  -1   3   0 1126.23 29.1865   4
  -1   3   0 1151.31 28.8702   1
   0  -3   0 946.442 24.2571   2
   0  -3   0 973.409 24.0854   3
   0  -3   0 959.497 24.3517   1
   0   3   0 949.806 24.1913   4
   0   3   0 926.264 24.3267   1
  -1  -3   0 457.777 11.7306   3
  -1  -3   0 472.141 12.4790   2
  -1  -3   0 466.963 12.8389   1
   1   3   0 460.915 12.3605   4
   1   3   0 470.263 11.8410   3
  -2  -3   0 264.388 7.73719   2
  -2  -3   0 262.163 8.28747   1
   2   3   0 267.891 7.70820   4
  -3  -3   0 8.31590 1.51741   2
  -3  -3   0 4.39295 1.68801   1
   3   3   0 4.72326 1.04854   4
  -4  -3   0 21.9157 3.05761   1
  -4  -3   0 20.7785 2.18669   2
   4   3   0 19.2263 1.72710   4
  -5  -3   0 59.9720 3.81031   2
  -5  -3   0 62.5957 4.70448   1
   5   3   0 56.6931 3.71694   4
  -6  -3   0 43.2738 4.94932   1
   6   3   0 34.9406 3.64394   4
  -7  -3   0 9.44097 4.36480   1
  -7  -3   0 15.4820 4.43509   2
   7   3   0 9.69430 3.17038   4
  -8  -3   0 -2.1752 4.28115   1
  -8  -3   0 -2.2920 4.20243   2
   8   3   0 2.44384 3.06763   4
  -9  -3   0 -1.8201 5.38738   2
  -9  -3   0 7.84000 6.01613   1
   9   3   0 1.63044 3.94302   4
 -10  -3   0 0.46576 6.97797   1
 -10  -3   0 6.54690 6.58045   2
  10   3   0 -2.4404 3.90322   4
  12  -4   0 2.96503 5.15215   4
  12  -4   0 3.65341 5.77870   3
 -12   4   0 0.64417 7.46587   1
  11  -4   0 -0.1430 4.82290   3
  11  -4   0 1.34021 4.43567   2
 -11   4   0 4.37815 5.93795   1
 -11   4   0 -3.5744 4.27689   4
  10  -4   0 19.9132 3.75483   2
  10  -4   0 12.9159 4.19156   3
 -10   4   0 22.1671 5.59011   1
 -10   4   0 10.6608 4.28685   4
   9  -4   0 14.9563 3.09261   2
   9  -4   0 18.5865 3.68595   3
  -9   4   0 26.1120 4.90071   1
  -9   4   0 14.7721 3.51726   4
   8  -4   0 1.79304 2.11900   2
   8  -4   0 2.53865 2.85869   3
  -8   4   0 9.60469 2.88123   1
  -8   4   0 2.02178 3.54146   4
   7  -4   0 19.4568 2.33677   2
   7  -4   0 14.8021 2.56803   3
  -7   4   0 13.9015 2.49157   4
  -7   4   0 17.1702 3.03912   1
   6  -4   0 118.823 4.98850   3
   6  -4   0 113.814 4.45459   2
  -6   4   0 112.599 4.99555   3
  -6   4   0 113.243 4.92602   4
  -6   4   0 116.512 4.77070   1
   5  -4   0 99.2256 3.79228   2
  -5   4   0 99.8310 3.89040   1
  -5   4   0 91.7150 4.16339   4
  -5   4   0 99.7197 4.22073   3
   4  -4   0 609.428 16.5111   1
   4  -4   0 656.425 17.1346   2
  -4   4   0 647.989 16.7498   1
  -4   4   0 657.033 17.7784   3
  -4   4   0 644.003 17.5506   4
   3  -4   0 143.653 3.84190   1
   3  -4   0 146.152 4.59470   2
  -3   4   0 142.101 3.94749   1
  -3   4   0 144.139 4.84291   4
  -3   4   0 141.590 5.02101   3
   2  -4   0 1.33080 0.63455   2
  -2   4   0 1.76403 0.83365   3
  -2   4   0 1.28426 0.89367   4
   1  -4   0 237.409 6.77842   2
  -1   4   0 228.001 6.50557   1
  -1   4   0 241.302 6.79797   4
  -1   4   0 235.532 6.88898   3
   0  -4   0 536.726 14.3958   2
   0  -4   0 547.655 14.5222   1
   0  -4   0 528.442 14.1170   3
   0   4   0 541.102 14.1471   3
   0   4   0 545.717 14.3042   4
  -1  -4   0 710.635 17.9707   3
  -1  -4   0 731.099 18.8697   2
  -1  -4   0 722.001 19.2876   1
   1   4   0 693.261 18.6519   4
   1   4   0 703.647 18.0770   3
  -2  -4   0 97.9318 3.69488   2
  -2  -4   0 90.1343 4.32959   1
   2   4   0 97.1656 3.54418   4
  -3  -4   0 13.1482 1.89815   2
  -3  -4   0 11.3363 2.38814   1
   3   4   0 10.9039 1.67154   4
  -4  -4   0 13.1671 2.25365   2
  -4  -4   0 10.0494 2.86965   1
  -5  -4   0 22.8237 4.14091   1
  -5  -4   0 28.2716 4.19410   2
   5   4   0 17.0571 2.99394   4
  -6  -4   0 18.0468 4.63654   1
   6   4   0 18.5724 3.28133   4
  -7  -4   0 6.82383 4.28622   1
  -7  -4   0 7.18361 4.13724   2
   7   4   0 6.33523 3.24863   4
  -8  -4   0 2.47292 4.51555   2
  -8  -4   0 2.92132 5.11526   1
   8   4   0 -2.1243 3.13569   4
  -9  -4   0 -4.0265 6.23043   2
  -9  -4   0 -7.8999 6.30164   1
   9   4   0 -1.7001 3.58638   4
  12  -5   0 1.06421 4.98882   3
 -12   5   0 3.67040 6.15526   4
 -12   5   0 -12.095 7.36422   1
  11  -5   0 -4.4980 4.20994   2
  11  -5   0 -4.4466 4.18543   3
 -11   5   0 -0.0249 5.99674   1
 -11   5   0 3.04425 4.56832   4
  10  -5   0 21.2493 3.77495   2
  10  -5   0 18.6768 4.41501   3
 -10   5   0 20.6940 5.59586   1
 -10   5   0 19.9251 4.67525   4
   9  -5   0 10.7671 3.01627   2
   9  -5   0 10.9779 3.75038   3
  -9   5   0 7.96763 3.28930   4
   8  -5   0 4.37263 2.16423   2
  -8   5   0 -2.5075 2.70634   1
  -8   5   0 2.53233 4.13316   4
   7  -5   0 11.5184 2.20436   2
   7  -5   0 12.4555 3.35622   3
  -7   5   0 14.9412 2.58101   1
   6  -5   0 104.412 4.27636   2
  -6   5   0 108.569 4.40084   1
  -6   5   0 96.1391 4.67988   4
  -6   5   0 98.3307 4.76768   3
   5  -5   0 103.818 3.98075   2
   5  -5   0 98.1841 3.46461   1
  -5   5   0 103.484 4.44929   4
  -5   5   0 110.094 4.71444   3
  -5   5   0 107.310 3.73665   1
   4  -5   0 696.341 17.2563   1
   4  -5   0 694.739 18.2625   2
  -4   5   0 645.201 17.3767   1
  -4   5   0 689.121 18.6862   4
  -4   5   0 688.547 18.9241   3
   3  -5   0 79.5033 3.06650   2
  -3   5   0 71.9281 3.47144   3
   2  -5   0 90.3414 3.35994   2
  -2   5   0 94.4821 3.51208   4
  -2   5   0 92.6861 2.70863   1
  -2   5   0 90.5341 2.81627   1
  -2   5   0 89.0235 3.68094   3
   1  -5   0 207.068 6.29146   2
   1  -5   0 213.378 6.12200   1
  -1   5   0 206.682 6.29460   4
  -1   5   0 198.630 6.09710   1
  -1   5   0 207.607 6.34290   3
   0  -5   0 227.263 6.87484   1
   0  -5   0 215.073 6.63397   2
   0  -5   0 203.518 6.32141   3
   0   5   0 217.227 6.54226   4
   0   5   0 223.065 6.42187   3
  -1  -5   0 290.049 8.56855   2
  -1  -5   0 276.790 7.58848   3
  -1  -5   0 290.489 9.02948   1
   1   5   0 279.171 7.75269   3
   1   5   0 289.746 8.39750   4
  -2  -5   0 3.92081 1.91792   1
  -2  -5   0 3.94181 1.10893   2
   2   5   0 2.71141 1.08890   4
  -3  -5   0 20.9898 3.01066   1
  -3  -5   0 21.6585 2.21059   2
  -4  -5   0 -0.6722 2.90978   1
  -4  -5   0 1.26250 2.16498   2
   4   5   0 5.13593 3.50702   4
  -5  -5   0 13.6867 4.20729   1
  -5  -5   0 11.2464 3.08571   2
   5   5   0 9.02077 2.20226   4
  -6  -5   0 9.42159 4.03863   1
  -6  -5   0 7.77537 3.23828   2
   6   5   0 6.26637 2.50050   4
  -7  -5   0 -0.8112 5.10002   1
  -7  -5   0 3.10205 3.88159   2
   7   5   0 3.62515 2.93942   4
  -8  -5   0 2.34047 5.29096   2
  -8  -5   0 1.74341 5.84143   1
   8   5   0 5.00925 3.50168   4
  -9  -5   0 -1.2475 6.75776   2
  -9  -5   0 6.18862 7.80734   1
   9   5   0 3.49930 4.38213   4
  12  -6   0 5.93139 5.28819   3
 -12   6   0 -1.3284 7.13857   1
 -12   6   0 13.3209 5.97158   4
  11  -6   0 -6.1241 4.18685   2
  11  -6   0 -4.4689 4.58926   3
 -11   6   0 6.76730 5.84403   1
 -11   6   0 -2.5828 4.36534   4
  10  -6   0 4.43656 3.34986   2
  10  -6   0 6.09006 4.23680   3
 -10   6   0 5.61596 4.17846   4
 -10   6   0 9.93579 4.95547   1
   9  -6   0 12.7346 2.97736   2
   9  -6   0 11.6778 3.72140   3
  -9   6   0 17.5230 3.83309   1
  -9   6   0 17.6819 4.06835   4
   8  -6   0 1.17208 2.35266   2
   8  -6   0 3.40062 3.09068   3
  -8   6   0 6.75951 2.97341   1
  -8   6   0 1.54595 3.15773   4
   7  -6   0 0.77078 2.63449   3
   7  -6   0 -0.1703 1.63185   2
  -7   6   0 -1.6906 2.02029   1
  -7   6   0 -1.4197 2.74276   4
   6  -6   0 33.8629 2.48246   2
  -6   6   0 36.3509 2.98464   4
  -6   6   0 34.5789 2.46965   1
  -6   6   0 33.8027 3.09776   3
   5  -6   0 138.658 4.10673   1
   5  -6   0 143.152 5.08270   2
  -5   6   0 147.328 5.69114   4
  -5   6   0 147.759 5.86984   3
   4  -6   0 147.755 5.14687   2
  -4   6   0 143.536 5.66380   3
  -4   6   0 152.478 5.54339   4
   3  -6   0 44.7467 2.28526   2
  -3   6   0 40.5654 2.49171   4
  -3   6   0 42.3062 2.77025   3
   2  -6   0 -0.0738 0.93240   2
  -2   6   0 -0.1019 0.94446   4
  -2   6   0 0.10169 1.51657   3
  -2   6   0 0.29515 1.05024   1
  -2   6   0 1.03256 0.85150   1
   1  -6   0 -0.6741 1.23609   1
   1  -6   0 0.48433 0.86401   2
  -1   6   0 0.33641 1.27931   3
  -1   6   0 0.33826 1.04901   4
   0  -6   0 64.7038 3.32783   1
   0  -6   0 61.5242 2.89465   2
   0   6   0 66.6284 2.95013   3
   0   6   0 70.1527 2.94039   4
  -1  -6   0 76.5233 2.89965   3
  -1  -6   0 82.5812 4.14295   1
  -1  -6   0 72.2283 2.69622   3
  -1  -6   0 79.1385 3.53792   2
   1   6   0 80.7305 3.39348   4
  -2  -6   0 26.9121 3.13592   1
   2   6   0 25.6327 2.47634   4
  -3  -6   0 32.4482 4.31528   1
  -4  -6   0 3.50241 3.71505   1
  -4  -6   0 1.67047 2.41534   2
   4   6   0 0.90410 1.99510   4
  -5  -6   0 6.34997 4.33376   1
  -5  -6   0 1.81554 2.90884   2
   5   6   0 4.98007 2.58955   4
  -6  -6   0 1.99866 3.93674   2
  -6  -6   0 -10.193 4.69449   1
   6   6   0 6.05002 2.77968   4
  -7  -6   0 -4.2122 4.78865   2
  -7  -6   0 9.71562 6.19028   1
   7   6   0 0.96972 3.11836   4
  -8  -6   0 -3.3213 5.53100   2
  -8  -6   0 9.45839 7.26760   1
   8   6   0 10.5885 4.32634   4
  12  -7   0 3.23589 5.37618   3
 -12   7   0 2.16499 5.51965   4
 -12   7   0 13.7999 7.03739   1
  11  -7   0 -6.2993 3.97144   2
  11  -7   0 10.0545 4.79703   3
 -11   7   0 -8.6855 5.85260   1
 -11   7   0 5.49677 4.37334   4
  10  -7   0 2.42416 3.44617   2
  10  -7   0 8.73644 4.17179   3
 -10   7   0 9.68841 4.46484   4
 -10   7   0 5.94937 4.22464   1
   9  -7   0 17.3325 3.95222   3
   9  -7   0 19.5200 3.31194   2
  -9   7   0 20.4940 4.18407   4
  -9   7   0 19.4606 3.94523   1
   8  -7   0 17.9704 3.68147   3
   8  -7   0 16.1853 2.84167   2
  -8   7   0 17.7367 4.11091   4
  -8   7   0 20.5249 3.20263   1
   7  -7   0 3.56441 2.99727   3
   7  -7   0 2.19585 1.71771   2
  -7   7   0 2.68517 2.03252   1
  -7   7   0 2.13620 2.28221   3
  -7   7   0 7.41430 3.01993   4
   6  -7   0 34.6528 1.87036   1
   6  -7   0 38.0964 2.69485   2
  -6   7   0 32.1544 2.16087   1
  -6   7   0 35.5788 3.61856   4
  -6   7   0 30.4378 3.62794   3
   5  -7   0 78.7715 3.60396   2
  -5   7   0 79.8644 4.27827   3
  -5   7   0 80.2543 4.03718   4
   4  -7   0 133.638 4.92519   2
  -4   7   0 137.667 5.60296   3
  -4   7   0 128.756 5.22298   4
   3  -7   0 97.5921 3.88008   2
  -3   7   0 95.5854 4.46068   3
  -3   7   0 97.4283 4.22173   4
   2  -7   0 25.0465 1.96571   2
  -2   7   0 20.2426 2.11345   1
  -2   7   0 23.1016 1.72731   1
  -2   7   0 24.9047 2.11188   4
  -2   7   0 24.5231 2.53284   3
   1  -7   0 29.9837 1.99976   2
  -1   7   0 28.3439 2.14663   4
  -1   7   0 27.0068 2.45783   1
  -1   7   0 30.6291 2.63335   3
   0  -7   0 55.3245 3.54248   1
   0  -7   0 52.0224 3.24847   2
   0  -7   0 55.8952 2.94796   3
   0   7   0 55.4209 3.03001   3
   0   7   0 58.7444 3.62524   4
  -1  -7   0 36.4407 2.17511   3
  -1  -7   0 37.1215 2.71469   2
  -1  -7   0 43.1183 3.65506   1
  -1  -7   0 29.7144 2.01038   3
   1   7   0 34.8746 2.75399   4
  -2  -7   0 22.3440 3.38477   1
  -2  -7   0 12.6178 2.42856   2
   2   7   0 13.0118 2.33462   4
  -3  -7   0 -0.7573 2.26797   2
   3   7   0 -1.7110 2.23135   4
  -4  -7   0 4.75042 4.06171   1
  -4  -7   0 -2.1146 2.79065   2
   4   7   0 -2.8068 2.41457   4
  -5  -7   0 3.64996 4.74398   1
  -5  -7   0 0.01275 3.45998   2
   5   7   0 -3.7730 2.60087   4
  -6  -7   0 4.81896 4.76096   2
  -6  -7   0 5.19740 6.30260   1
   6   7   0 0.72236 3.26166   4
  -7  -7   0 7.95797 15.8192   1
  -7  -7   0 -10.069 5.67435   2
   7   7   0 1.75275 3.95164   4
  12  -8   0 -7.5274 5.76636   3
 -12   8   0 0.02895 6.24571   4
  11  -8   0 1.59285 4.34238   2
  11  -8   0 8.53623 5.21962   3
 -11   8   0 -0.8438 4.50901   4
  10  -8   0 0.54889 3.82277   2
  10  -8   0 1.69075 4.00675   3
 -10   8   0 2.66194 4.60051   1
 -10   8   0 8.93500 4.60965   4
   9  -8   0 13.0151 4.20721   3
   9  -8   0 20.7414 3.57503   2
  -9   8   0 9.61371 3.25589   1
  -9   8   0 15.7477 4.43291   4
   8  -8   0 5.37551 3.42369   3
   8  -8   0 -0.9059 2.75806   2
  -8   8   0 0.87103 2.24514   1
  -8   8   0 11.5139 3.68808   4
   7  -8   0 0.21249 2.93919   3
   7  -8   0 3.29624 1.89036   2
  -7   8   0 -2.1226 2.72344   4
   6  -8   0 25.7717 2.56357   2
  -6   8   0 42.4604 7.75753   4
   5  -8   0 32.2953 2.51762   2
  -5   8   0 30.0723 3.88276   3
  -5   8   0 29.2196 3.60187   4
   4  -8   0 60.6752 3.15089   2
  -4   8   0 58.9963 4.00372   3
  -4   8   0 63.6270 4.08495   4
   3  -8   0 36.2932 3.42221   2
  -3   8   0 40.0285 3.29407   3
  -3   8   0 38.3819 3.13224   4
   2  -8   0 1.23934 1.71588   2
  -2   8   0 3.95181 2.15279   3
  -2   8   0 0.51484 1.87634   4
  -2   8   0 -0.1858 1.40669   1
   1  -8   0 5.67688 1.96374   3
   1  -8   0 7.70187 2.04258   2
  -1   8   0 7.99188 2.11744   1
  -1   8   0 9.63318 2.18963   3
  -1   8   0 7.89411 2.09924   4
   0  -8   0 17.7452 2.97389   2
   0  -8   0 16.6834 2.27184   3
   0  -8   0 18.5592 3.09425   1
   0   8   0 14.7108 2.87949   4
  -1  -8   0 17.4481 1.85526   3
  -1  -8   0 14.1830 2.73102   2
  -1  -8   0 19.8983 3.44463   1
   1   8   0 16.7081 2.51200   4
  -2  -8   0 3.74823 3.72565   1
  -2  -8   0 3.85931 2.32270   2
   2   8   0 4.70580 2.04372   4
  -3  -8   0 0.85275 2.73281   2
  -3  -8   0 1.27677 4.54063   1
   3   8   0 -1.8618 2.36222   4
  -4  -8   0 7.98297 5.23832   1
  -4  -8   0 2.42976 3.26033   2
   4   8   0 1.30862 2.56522   4
  -5  -8   0 9.60240 5.94805   1
  -5  -8   0 2.41209 4.02163   2
   5   8   0 1.08238 3.18652   4
  -6  -8   0 -3.5192 7.06160   1
  -6  -8   0 1.96075 5.77611   2
   6   8   0 7.02675 7.46690   4
  12  -9   0 -4.4210 5.80448   3
 -12   9   0 1.75302 6.07911   4
  11  -9   0 7.26621 4.83708   3
  11  -9   0 -7.3943 4.10905   2
 -11   9   0 -7.0684 4.90030   4
  10  -9   0 5.14221 4.57980   3
  10  -9   0 2.30638 3.70358   2
 -10   9   0 5.00949 4.33070   4
   9  -9   0 9.93506 3.42348   2
   9  -9   0 7.08654 3.94299   3
  -9   9   0 2.59984 4.05294   4
   8  -9   0 -1.8449 3.15645   3
   8  -9   0 3.62123 4.14342   2
  -8   9   0 0.68182 4.12906   4
   7  -9   0 0.65607 3.18755   3
   7  -9   0 3.48498 2.57323   2
  -7   9   0 -1.8407 3.09156   4
   6  -9   0 0.81589 2.29605   2
   6  -9   0 5.33620 3.16117   3
  -6   9   0 4.36662 2.67697   3
  -6   9   0 -3.6608 2.95936   4
   5  -9   0 19.6454 2.70753   2
  -5   9   0 13.6647 3.71488   3
  -5   9   0 22.5729 3.75526   4
   4  -9   0 4.36800 2.05010   2
  -4   9   0 6.83608 2.68215   4
  -4   9   0 4.16660 3.04912   3
   3  -9   0 66.5139 4.32427   2
  -3   9   0 76.9897 2.72155   1
  -3   9   0 68.6155 2.99348   1
  -3   9   0 85.1401 4.88490   3
  -3   9   0 69.9594 4.37303   4
   2  -9   0 12.6550 2.55363   2
   2  -9   0 7.12779 2.69771   3
  -2   9   0 2.50335 2.02775   1
  -2   9   0 10.2079 2.79436   4
   1  -9   0 -2.5569 1.90477   2
   1  -9   0 1.78961 2.50255   3
  -1   9   0 0.05828 1.75305   4
  -1   9   0 -5.1380 2.35139   1
   0  -9   0 16.7198 2.76302   2
   0  -9   0 15.1368 3.28403   1
   0  -9   0 17.4704 2.72710   3
   0   9   0 16.5838 2.77145   4
  -1  -9   0 7.66045 2.32086   3
  -1  -9   0 2.22243 4.39490   1
  -1  -9   0 3.53661 1.97095   2
   1   9   0 10.4893 2.59823   4
  -2  -9   0 0.63455 4.45756   1
  -2  -9   0 5.11931 3.06836   2
   2   9   0 0.24306 2.36800   4
  -3  -9   0 4.23718 3.39884   2
  -3  -9   0 2.20221 5.28879   1
   3   9   0 -0.1540 2.84725   4
  -4  -9   0 -3.1770 3.70525   2
  -4  -9   0 0.64026 6.43401   1
   4   9   0 -0.0983 3.03230   4
  -5  -9   0 5.46620 7.75486   1
  -5  -9   0 -1.5266 4.56971   2
   5   9   0 -0.5549 3.81297   4
  12 -10   0 -6.3253 5.81918   3
 -12  10   0 7.91765 6.71480   4
  11 -10   0 -5.8926 4.51166   2
 -11  10   0 -7.6793 4.84671   4
  10 -10   0 7.96573 3.86774   2
  10 -10   0 12.4430 4.89888   3
 -10  10   0 5.98096 5.26070   4
   9 -10   0 5.73824 3.96070   3
   9 -10   0 4.01573 3.41364   2
  -9  10   0 -4.9023 4.19001   4
   8 -10   0 3.95938 3.83928   3
   8 -10   0 3.67677 3.06438   2
  -8  10   0 -3.2560 3.76995   4
   7 -10   0 0.53139 3.56595   3
   7 -10   0 -0.4285 2.66837   2
  -7  10   0 4.32790 3.64817   4
   6 -10   0 3.07150 2.24702   2
   6 -10   0 0.08584 3.20858   3
  -6  10   0 -0.1964 3.19143   4
   5 -10   0 4.76128 2.33456   2
   5 -10   0 8.90108 3.93675   3
  -5  10   0 4.06169 3.52119   4
   4 -10   0 14.4735 3.57978   3
   4 -10   0 11.0427 2.50394   2
  -4  10   0 13.0882 2.94229   4
   3 -10   0 22.5233 2.67751   2
   3 -10   0 22.0126 4.72666   3
  -3  10   0 23.3528 2.09356   1
  -3  10   0 21.6455 3.53856   4
   2 -10   0 1.89037 2.39764   2
   2 -10   0 4.73985 2.99488   3
  -2  10   0 4.22663 2.42429   1
  -2  10   0 6.11442 2.45298   4
   1 -10   0 -0.7760 1.99320   2
   1 -10   0 -6.5108 2.87138   3
  -1  10   0 1.55026 2.87703   1
  -1  10   0 2.98024 2.49199   4
   0 -10   0 0.52065 2.59870   3
   0 -10   0 2.32600 2.37877   2
   0  10   0 -0.3939 2.47322   4
   0  10   0 5.24512 3.94930   1
  -1 -10   0 -2.2107 8.52234   1
  -1 -10   0 4.31909 2.83809   2
   1  10   0 1.93928 2.64875   4
  -2 -10   0 -6.1458 5.32849   1
  -2 -10   0 0.84418 3.17140   2
   2  10   0 -0.5365 2.64826   4
  -3 -10   0 -1.2111 4.10326   2
  -3 -10   0 -6.8535 6.73482   1
   3  10   0 -0.9993 3.04578   4
  -4 -10   0 -11.615 7.54704   1
  -4 -10   0 7.16874 8.13375   2
   4  10   0 0.69909 3.50532   4
  11 -11   0 4.61013 4.76958   3
  11 -11   0 -1.2589 4.91610   2
 -11  11   0 -0.3919 6.29642   4
  10 -11   0 2.26885 4.51091   3
  10 -11   0 -10.117 3.89474   2
 -10  11   0 -3.3645 5.50714   4
   9 -11   0 -2.7258 3.67290   2
   9 -11   0 6.60518 4.54528   3
  -9  11   0 1.87088 4.74236   4
   8 -11   0 1.11234 4.27805   3
   8 -11   0 1.76867 3.09275   2
  -8  11   0 9.60264 4.84193   4
   7 -11   0 1.12721 3.09983   2
   7 -11   0 1.01233 4.29518   3
  -7  11   0 0.52935 4.20165   4
   6 -11   0 2.01587 2.52530   2
   6 -11   0 2.64525 4.20234   3
  -6  11   0 -3.2595 3.28007   4
   5 -11   0 8.80159 4.48261   3
   5 -11   0 1.33269 2.60265   2
  -5  11   0 2.53548 3.07283   4
   4 -11   0 8.79003 4.43084   3
   4 -11   0 12.0510 2.77885   2
  -4  11   0 13.4616 3.40601   4
   3 -11   0 -1.2205 3.85462   3
   3 -11   0 1.34236 2.36134   2
  -3  11   0 1.18972 2.53832   4
   2 -11   0 2.78257 2.11704   2
   2 -11   0 -0.3308 4.03619   3
  -2  11   0 1.73251 3.02691   4
   1 -11   0 -2.7616 2.46362   2
   1 -11   0 8.33481 3.47109   3
  -1  11   0 3.48061 2.94463   4
  -1  11   0 6.02779 3.70992   1
   0 -11   0 -2.5386 2.02885   2
   0  11   0 11.0283 4.88891   1
   0  11   0 0.68885 2.94445   4
  -1 -11   0 2.58865 3.09499   2
   1  11   0 1.54232 2.77918   4
   1  11   0 6.68131 5.83267   1
  -2 -11   0 3.67768 3.52316   2
   2  11   0 -3.1754 6.34911   1
   2  11   0 3.44610 3.34588   4
  -3 -11   0 -11.732 8.00891   1
  -3 -11   0 -0.7154 4.36643   2
   3  11   0 1.25238 3.89771   4
  11 -12   0 4.21418 5.31837   2
  11 -12   0 0.38391 5.66216   3
 -11  12   0 6.30002 6.37345   4
  10 -12   0 -2.4703 5.22210   3
  10 -12   0 1.97607 4.24015   2
 -10  12   0 -0.1797 6.50872   4
   9 -12   0 3.95837 3.91529   2
   9 -12   0 3.53414 5.13336   3
  -9  12   0 -1.6110 5.23089   4
   8 -12   0 -5.8738 3.07515   2
   8 -12   0 2.82425 4.65819   3
  -8  12   0 0.02926 4.70522   4
   7 -12   0 0.97839 4.31164   3
   7 -12   0 -1.5611 3.09791   2
  -7  12   0 1.51370 4.64919   4
   6 -12   0 2.69340 4.52266   3
   6 -12   0 6.02069 3.16963   2
  -6  12   0 -4.1126 4.04162   4
   5 -12   0 -0.5819 4.58925   3
   5 -12   0 0.30476 2.85736   2
  -5  12   0 -3.4518 3.60362   4
   4 -12   0 4.07807 2.63776   2
   4 -12   0 5.31512 4.72002   3
  -4  12   0 1.73901 3.31783   4
   3 -12   0 3.67047 3.15750   2
   3 -12   0 9.77351 5.02590   3
  -3  12   0 1.43839 2.96837   4
   2 -12   0 -0.2174 2.89267   2
   2 -12   0 -2.0836 4.59841   3
  -2  12   0 1.68295 3.27054   4
   1 -12   0 2.55308 3.04422   2
  -1  12   0 5.10278 3.31741   4
   0 -12   0 -1.1905 2.93856   2
   0  12   0 3.63585 3.58287   4
  -1 -12   0 0.16308 3.12536   2
   1  12   0 12.5525 6.98755   1
   1  12   0 8.64829 3.84558   4
  -2 -12   0 -2.2304 4.04614   2
   2  12   0 4.38945 4.06508   4
   2  12   0 1.53657 7.81986   1
  10 -13   0 -7.7606 4.63246   2
  10 -13   0 3.18911 5.65768   3
 -10  13   0 1.51831 5.82376   4
   9 -13   0 2.46632 6.20798   3
   9 -13   0 1.90186 4.34615   2
  -9  13   0 -9.8594 6.03181   4
   8 -13   0 3.87675 5.37969   3
   8 -13   0 -4.0682 3.86056   2
  -8  13   0 8.63722 8.64670   4
   7 -13   0 4.57628 3.62468   2
   7 -13   0 2.68161 5.68658   3
  -7  13   0 -0.7068 4.70751   4
   6 -13   0 1.05869 3.63986   2
   6 -13   0 5.45908 5.84553   3
  -6  13   0 2.08825 4.58281   4
   5 -13   0 -0.7331 5.47876   3
   5 -13   0 1.68581 3.48009   2
  -5  13   0 4.39486 4.06109   4
   4 -13   0 1.08511 3.16780   2
   4 -13   0 1.77526 5.66614   3
  -4  13   0 1.96388 3.91281   4
   3 -13   0 -8.7925 5.44449   3
   3 -13   0 -6.7786 3.14831   2
  -3  13   0 -4.8156 3.54365   4
   2 -13   0 3.95097 3.76382   2
  -2  13   0 3.80720 5.93665   4
   1 -13   0 -3.3619 3.33696   2
  -1  13   0 4.86762 4.57583   4
   0 -13   0 0.38566 3.76913   2
   0  13   0 6.09865 4.20718   4
   8 -14   0 -3.4382 5.89906   3
   8 -14   0 0.13964 4.97099   2
  -8  14   0 12.5503 6.24867   4
   7 -14   0 -5.4650 6.43481   3
   7 -14   0 5.92905 5.09690   2
  -7  14   0 8.16001 5.61040   4
   6 -14   0 8.82121 6.33745   3
  -6  14   0 1.71444 5.12793   4
   5 -14   0 -3.5711 3.70098   2
   5 -14   0 6.06103 6.67761   3
  -5  14   0 -2.5476 4.41700   4
   4 -14   0 2.99887 3.67303   2
  -4  14   0 10.9053 5.03887   4
   3 -14   0 -1.5467 3.80222   2
  -3  14   0 -3.4244 4.55890   4
   2 -14   0 -2.0439 3.40855   2
  -2  14   0 -0.1589 4.30247   4
  -2  14  -1 2.64678 4.34520   4
   2 -14   1 8.04853 3.59968   2
  -3  14  -1 3.64561 4.60260   4
   3 -14   1 2.11947 3.98738   2
  -4  14  -1 1.29270 4.25243   4
   4 -14   1 -2.3073 6.45436   3
   4 -14   1 6.05104 4.16125   2
  -5  14  -1 12.1966 5.32253   4
   5 -14   1 13.5205 6.33589   3
  -6  14  -1 -9.1663 5.17279   4
   6 -14   1 -2.1722 6.03991   3
   6 -14   1 -2.6970 4.04167   2
  -7  14  -1 -9.6913 5.54762   4
   7 -14   1 -3.9307 4.19799   2
   7 -14   1 -13.432 5.82140   3
  -8  14  -1 -1.2643 6.45631   4
   8 -14   1 10.5767 4.85455   2
   8 -14   1 -11.389 5.84749   3
   0  13  -1 -3.5486 3.95072   4
   0 -13   1 0.18750 3.68981   2
  -1  13  -1 -2.1238 3.91467   4
   1 -13   1 -2.5159 2.98443   2
  -2  13  -1 1.19454 4.04879   4
   2 -13   1 -4.1967 3.01976   2
  -3  13  -1 -4.9302 3.82504   4
   3 -13   1 -1.4283 3.42238   2
   3 -13   1 1.12660 5.06776   3
  -4  13  -1 5.60861 3.87377   4
   4 -13   1 0.28737 5.46635   3
   4 -13   1 -1.5652 2.99145   2
  -5  13  -1 3.70454 4.30934   4
   5 -13   1 -2.3811 5.69008   3
   5 -13   1 -3.2167 3.16656   2
  -6  13  -1 0.40913 4.84776   4
   6 -13   1 0.29021 3.40601   2
   6 -13   1 0.29643 5.79309   3
  -7  13  -1 -1.3012 5.57320   4
   7 -13   1 0.92490 4.95141   3
   7 -13   1 6.04735 3.72958   2
  -8  13  -1 -1.0526 5.74417   4
   8 -13   1 9.68519 4.03929   2
   8 -13   1 -2.4194 5.27628   3
  -9  13  -1 -5.6416 6.10696   4
   9 -13   1 -5.6511 5.41200   3
   9 -13   1 7.01287 4.53847   2
   2  12  -1 0.34828 3.99186   4
   2  12  -1 -7.5281 7.73882   1
  -2 -12   1 -1.1513 4.73002   2
   1  12  -1 1.04512 4.19496   4
   1  12  -1 0.61527 6.23724   1
  -1 -12   1 4.13246 3.56284   2
   0  12  -1 3.82139 3.70451   4
   0 -12   1 -1.9753 3.22063   2
  -1  12  -1 -3.3746 3.24935   4
   1 -12   1 1.37921 2.75466   2
  -2  12  -1 -0.0181 3.56525   4
   2 -12   1 0.90423 2.78915   2
   2 -12   1 6.22464 4.25910   3
  -3  12  -1 0.33307 3.08875   4
   3 -12   1 -2.7878 4.53626   3
   3 -12   1 2.11381 2.60513   2
  -4  12  -1 -0.2997 3.55525   4
   4 -12   1 5.31062 4.41951   3
   4 -12   1 -2.5800 2.40715   2
  -5  12  -1 4.47084 3.95612   4
   5 -12   1 5.92246 4.40770   3
   5 -12   1 4.95219 2.92638   2
  -6  12  -1 12.1019 4.48776   4
   6 -12   1 -2.0347 3.12823   2
   6 -12   1 5.05338 4.23111   3
  -7  12  -1 6.29606 4.77667   4
   7 -12   1 2.62060 4.41806   3
   7 -12   1 1.54814 3.29577   2
  -8  12  -1 0.22482 4.57760   4
   8 -12   1 4.46939 3.44734   2
   8 -12   1 4.34372 4.50148   3
  -9  12  -1 0.15142 5.39628   4
   9 -12   1 6.30412 4.84717   3
   9 -12   1 0.01206 3.58560   2
 -10  12  -1 0.30917 5.30769   4
  10 -12   1 0.88829 5.33844   3
  10 -12   1 -10.200 4.10975   2
   3  11  -1 0.67678 7.15621   1
   3  11  -1 -3.3764 3.35340   4
  -3 -11   1 -1.8889 4.12876   2
   2  11  -1 4.65102 5.91848   1
   2  11  -1 -1.9794 3.04987   4
  -2 -11   1 4.52227 3.78891   2
   1  11  -1 -1.3722 2.82993   4
  -1 -11   1 1.40750 3.09158   2
   0  11  -1 9.58494 4.64237   1
   0  11  -1 6.93117 2.93969   4
   0 -11   1 1.80612 2.54233   2
  -1  11  -1 0.99765 3.12489   4
  -1  11  -1 5.49372 3.92505   1
   1 -11   1 13.5808 3.28909   3
   1 -11   1 -0.6344 2.50245   2
  -2  11  -1 3.26294 2.95150   1
  -2  11  -1 -1.1289 3.08919   4
   2 -11   1 0.84955 2.43303   2
   2 -11   1 6.49821 5.47597   3
  -3  11  -1 -0.7677 2.67625   4
   3 -11   1 5.65768 3.98484   3
   3 -11   1 -0.3446 2.39662   2
  -4  11  -1 1.64700 2.83628   4
   4 -11   1 -0.4776 2.19822   2
   4 -11   1 3.26489 4.16476   3
  -5  11  -1 -1.8242 2.98810   4
   5 -11   1 -1.7015 2.46391   2
   5 -11   1 0.81371 3.54428   3
  -6  11  -1 1.92171 3.84993   4
   6 -11   1 7.03551 2.94014   2
   6 -11   1 4.17950 4.06290   3
  -7  11  -1 9.14211 4.40322   4
   7 -11   1 -2.1020 3.95000   3
   7 -11   1 2.46235 2.77428   2
  -8  11  -1 -1.4455 4.44594   4
   8 -11   1 -4.5078 3.00837   2
   8 -11   1 5.43072 4.47073   3
  -9  11  -1 -0.1716 4.36878   4
   9 -11   1 1.08006 3.50649   2
   9 -11   1 4.94014 4.32302   3
 -10  11  -1 -1.0594 5.41908   4
  10 -11   1 -0.1018 5.06764   3
  10 -11   1 2.86044 4.04346   2
 -11  11  -1 1.98234 6.00269   4
  11 -11   1 -2.8815 5.22538   3
  -4 -10   1 -6.8207 7.25801   1
  -4 -10   1 1.26500 6.18614   2
   3  10  -1 4.70824 3.06811   4
   3  10  -1 1.98709 5.98137   1
  -3 -10   1 -5.5621 7.02983   1
  -3 -10   1 2.53745 3.76720   2
   2  10  -1 3.91971 5.08610   1
   2  10  -1 0.09786 2.65968   4
  -2 -10   1 0.74065 2.93441   2
   1  10  -1 -3.2121 2.31880   4
  -1 -10   1 -1.0622 2.62914   2
   0  10  -1 9.69887 3.68391   1
   0  10  -1 6.93277 2.82675   4
   0 -10   1 2.11373 1.89500   2
   0 -10   1 4.84279 2.48878   3
  -1  10  -1 4.62863 2.29999   4
  -1  10  -1 4.44624 2.93393   1
   1 -10   1 0.81899 2.24220   2
   1 -10   1 -1.4769 2.51154   3
  -2  10  -1 -0.9911 2.47811   4
  -2  10  -1 1.05207 2.41965   1
   2 -10   1 -2.6130 2.81418   3
   2 -10   1 0.50321 2.34983   2
  -3  10  -1 19.9164 2.34666   1
  -3  10  -1 11.3519 2.91813   4
   3 -10   1 15.1541 3.77474   3
   3 -10   1 13.0999 2.59138   2
  -4  10  -1 5.08912 2.80749   4
   4 -10   1 3.61658 2.45570   2
   4 -10   1 3.40359 5.01696   3
  -5  10  -1 5.98712 3.28027   4
   5 -10   1 6.17882 2.45432   2
   5 -10   1 4.68484 3.54278   3
  -6  10  -1 3.57332 3.34619   4
   6 -10   1 6.32758 3.33997   3
   6 -10   1 8.72326 2.49748   2
  -7  10  -1 11.2629 4.14406   4
   7 -10   1 9.16658 2.87934   2
   7 -10   1 8.04218 3.52462   3
  -8  10  -1 6.47955 4.31721   4
   8 -10   1 1.96248 3.01748   2
   8 -10   1 2.42625 3.71874   3
  -9  10  -1 8.43448 3.96890   4
   9 -10   1 -3.7728 3.48640   2
   9 -10   1 2.79829 3.84346   3
 -10  10  -1 -1.4213 4.79587   4
  10 -10   1 2.37322 4.53840   3
  10 -10   1 -1.7921 3.86752   2
  11 -10   1 -4.3524 4.75153   3
  -6  -9   1 3.79229 5.83739   2
   5   9  -1 -0.8991 3.47769   4
  -5  -9   1 2.38729 6.98959   1
  -5  -9   1 -1.2761 4.33497   2
   4   9  -1 0.12081 3.09168   4
  -4  -9   1 0.74629 3.59861   2
  -4  -9   1 -6.7845 5.64955   1
   3   9  -1 2.10083 2.55331   4
  -3  -9   1 7.70851 5.54384   1
  -3  -9   1 3.63328 3.27365   2
   2   9  -1 0.52857 2.23032   4
  -2  -9   1 -2.4161 4.49286   1
  -2  -9   1 4.42340 2.87944   2
   1   9  -1 -3.7484 2.05627   4
   1   9  -1 3.73538 4.30539   1
  -1  -9   1 1.74483 2.05762   2
  -1  -9   1 0.25020 1.58794   3
   0   9  -1 1.56674 2.80094   1
   0   9  -1 7.33461 2.50752   4
   0  -9   1 3.77888 2.07531   2
   0  -9   1 5.86286 2.20669   3
  -1   9  -1 19.0909 2.95179   4
  -1   9  -1 24.2955 3.16698   1
   1  -9   1 20.7567 2.94941   2
  -2   9  -1 -2.6620 1.92230   1
  -2   9  -1 0.13219 1.80441   4
   2  -9   1 -0.8270 1.78186   2
   2  -9   1 1.43631 2.29952   3
  -3   9  -1 48.2771 3.30695   1
  -3   9  -1 56.9325 4.13068   4
  -3   9  -1 57.3147 2.62145   1
   3  -9   1 67.2746 4.45294   3
   3  -9   1 60.0774 4.06711   2
  -4   9  -1 13.2465 2.90034   4
   4  -9   1 14.8766 2.58986   2
   4  -9   1 12.0663 3.19362   3
  -5   9  -1 -1.0813 2.85834   4
   5  -9   1 1.67054 1.86091   2
  -6   9  -1 14.3745 3.72179   4
   6  -9   1 9.14731 3.06068   3
   6  -9   1 11.9984 2.32632   2
  -7   9  -1 4.53900 3.78888   4
   7  -9   1 5.94448 2.61165   2
   7  -9   1 6.59008 3.38999   3
  -8   9  -1 5.80688 3.67243   4
   8  -9   1 0.65779 3.32094   3
   8  -9   1 2.18622 2.73501   2
  -9   9  -1 -4.0627 3.98122   4
   9  -9   1 6.36665 3.70129   3
   9  -9   1 1.64017 3.20935   2
 -10   9  -1 3.47651 4.34188   4
  10  -9   1 -0.4586 4.04730   3
  10  -9   1 0.88342 6.65958   2
 -11   9  -1 1.72316 6.00088   4
  11  -9   1 -12.264 4.16093   3
 -12   9  -1 2.69932 6.32842   4
  12  -9   1 5.22049 5.09078   3
   6   8  -1 0.20900 3.54195   4
  -6  -8   1 -1.0488 6.64160   1
  -6  -8   1 0.86051 5.02320   2
   5   8  -1 -0.3575 3.21670   4
  -5  -8   1 -1.7461 3.75291   2
  -5  -8   1 -1.4106 5.76875   1
   4   8  -1 1.35365 3.03152   4
  -4  -8   1 -4.1593 4.75923   1
  -4  -8   1 4.29720 3.48089   2
   3   8  -1 4.90960 2.47581   4
  -3  -8   1 3.10017 2.80012   2
  -3  -8   1 8.64209 4.53096   1
   2   8  -1 3.04342 2.02383   4
  -2  -8   1 -1.4588 3.84544   1
  -2  -8   1 -0.1256 2.33733   2
   1   8  -1 0.68193 1.88995   4
  -1  -8   1 2.21247 1.41153   3
  -1  -8   1 3.40312 2.91118   1
  -1  -8   1 0.68571 1.61677   2
   0   8  -1 12.6455 2.72064   1
   0  -8   1 14.0926 2.01030   3
   0  -8   1 14.9761 3.89767   2
  -1   8  -1 19.9493 2.51240   1
  -1   8  -1 16.7917 2.54098   4
   1  -8   1 14.4802 2.25074   2
   1  -8   1 20.0582 2.62993   3
  -2   8  -1 24.2081 2.18264   1
  -2   8  -1 26.8791 2.81339   4
   2  -8   1 24.5947 2.92010   2
   2  -8   1 23.0777 2.83976   3
  -3   8  -1 55.4286 2.82174   1
  -3   8  -1 60.9975 2.42545   1
  -3   8  -1 58.4518 3.65996   4
   3  -8   1 58.5405 3.84365   3
   3  -8   1 60.8286 3.01126   2
  -4   8  -1 1.33269 2.00596   4
   4  -8   1 -0.8116 1.23674   2
   4  -8   1 -0.8795 2.11310   3
  -5   8  -1 14.4291 3.13803   4
   5  -8   1 15.4892 2.06597   2
   5  -8   1 12.8414 3.12242   3
  -6   8  -1 8.23431 3.14068   4
   6  -8   1 7.94654 2.80209   3
   6  -8   1 8.68912 2.06559   2
   6  -8   1 5.40840 1.28512   1
  -7   8  -1 12.4494 3.52246   4
  -7   8  -1 7.67427 2.38247   1
   7  -8   1 5.85123 2.89618   3
   7  -8   1 13.8235 2.45513   2
  -8   8  -1 9.51445 3.05784   1
  -8   8  -1 -0.7151 3.31315   4
   8  -8   1 10.0999 2.50494   2
   8  -8   1 4.55401 2.97728   3
  -9   8  -1 6.23717 3.79394   4
  -9   8  -1 1.71257 3.72620   1
   9  -8   1 4.26743 3.61385   3
   9  -8   1 10.4938 2.89560   2
 -10   8  -1 -0.8214 4.64610   4
 -10   8  -1 4.85122 5.16865   1
  10  -8   1 1.53101 3.43590   2
  10  -8   1 4.90678 3.98742   3
 -11   8  -1 1.71771 5.30028   4
  11  -8   1 2.14492 4.36172   3
 -12   8  -1 0.66176 5.88728   4
  12  -8   1 -0.8196 7.37412   3
   7   7  -1 2.25037 3.88518   4
  -7  -7   1 -4.5750 9.81143   1
  -7  -7   1 -8.1300 5.64175   2
   6   7  -1 -4.4442 2.86727   4
  -6  -7   1 -0.6539 6.31334   1
  -6  -7   1 9.34790 4.67153   2
   5   7  -1 -2.2481 2.65793   4
  -5  -7   1 -3.8232 3.01998   2
  -5  -7   1 0.04716 5.10045   1
   4   7  -1 7.66800 2.70627   4
  -4  -7   1 5.17275 3.06694   2
  -4  -7   1 0.85293 4.02700   1
   3   7  -1 9.14751 2.34240   4
  -3  -7   1 5.67007 2.92542   2
  -2  -7   1 9.13385 2.51663   2
   1   7  -1 3.04352 1.67618   4
  -1  -7   1 -1.8916 2.13367   1
  -1  -7   1 1.21037 1.33850   2
  -1  -7   1 0.79983 1.09683   3
  -1  -7   1 0.83954 1.31234   3
   0   7  -1 18.5726 2.55169   1
   0   7  -1 18.7494 1.80073   4
   0  -7   1 13.9134 1.74215   2
   0  -7   1 16.9437 2.07069   3
  -1   7  -1 67.0134 3.26994   1
  -1   7  -1 64.9555 3.21788   4
   1  -7   1 65.3066 3.00474   2
   1  -7   1 66.7448 3.34646   3
  -2   7  -1 121.418 4.11615   1
  -2   7  -1 124.424 4.84112   4
   2  -7   1 125.028 5.10258   3
   2  -7   1 127.864 4.57941   2
  -3   7  -1 27.9637 1.53200   1
  -3   7  -1 25.6208 1.90906   1
  -3   7  -1 31.0602 2.42911   4
   3  -7   1 30.6057 2.03375   2
   3  -7   1 30.5187 2.67223   3
  -4   7  -1 1.27888 1.42606   4
   4  -7   1 -0.1858 1.14794   2
   4  -7   1 2.26193 1.76301   3
  -5   7  -1 25.6744 4.16712   4
  -5   7  -1 14.1122 1.64129   1
   5  -7   1 14.7975 1.41942   1
   5  -7   1 20.3804 2.05358   2
   5  -7   1 17.9583 2.54241   3
  -6   7  -1 46.2122 4.13334   4
  -6   7  -1 34.9687 2.77987   1
   6  -7   1 42.2879 2.80662   2
   6  -7   1 35.7146 3.91376   3
  -7   7  -1 41.6330 4.35136   4
  -7   7  -1 42.1323 3.67214   1
   7  -7   1 48.1943 3.11847   2
   7  -7   1 40.6928 4.36521   3
  -8   7  -1 20.3559 3.49167   1
  -8   7  -1 17.0456 3.82839   4
   8  -7   1 15.6692 3.65761   3
   8  -7   1 23.0405 2.76132   2
  -9   7  -1 5.30137 4.04147   4
  -9   7  -1 11.3960 4.07735   1
   9  -7   1 3.70595 2.54675   2
   9  -7   1 2.92753 3.76691   3
 -10   7  -1 0.36944 3.95149   4
 -10   7  -1 11.9029 5.76070   1
  10  -7   1 -5.2742 3.20451   2
 -11   7  -1 2.12185 7.10244   1
 -11   7  -1 -0.4064 4.84847   4
  11  -7   1 5.59939 4.27613   3
 -12   7  -1 -1.2247 6.63186   4
 -12   7  -1 6.01195 7.59248   1
  12  -7   1 3.87646 5.04934   3
  -8  -6   1 -0.6458 5.81687   2
  -8  -6   1 -6.4866 7.10446   1
   7   6  -1 3.02265 3.11881   4
  -7  -6   1 -1.9930 5.09554   1
  -7  -6   1 -1.4171 4.38196   2
   6   6  -1 -5.7254 2.50907   4
  -6  -6   1 6.23904 5.15826   1
  -6  -6   1 0.81780 3.56066   2
   5   6  -1 2.79835 2.38139   4
  -5  -6   1 3.91510 3.90135   1
  -5  -6   1 3.74000 3.21970   2
   4   6  -1 23.0992 3.07934   4
  -4  -6   1 26.9732 4.61960   1
  -4  -6   1 31.2211 3.64633   2
   3   6  -1 32.5143 2.90654   4
  -3  -6   1 32.7840 5.24337   1
  -3  -6   1 32.5530 3.22708   2
   2   6  -1 10.5159 1.89762   4
  -2  -6   1 10.9056 2.45022   1
   1   6  -1 1.14491 0.99892   4
  -1  -6   1 1.51649 1.99928   1
  -1  -6   1 -0.6187 1.11174   2
  -1  -6   1 0.58322 1.15632   3
  -1  -6   1 -1.3753 0.88723   3
   0   6  -1 36.7642 2.08077   4
   0   6  -1 36.8868 2.58638   1
   0  -6   1 35.5277 2.14981   3
   0  -6   1 35.1118 2.26137   2
   0  -6   1 42.6787 2.78772   1
  -1   6  -1 169.891 5.39617   1
  -1   6  -1 162.880 5.57230   4
   1  -6   1 166.634 5.57427   3
   1  -6   1 168.631 5.52037   2
  -2   6  -1 104.543 4.08491   4
  -2   6  -1 97.2955 3.61167   1
  -2   6  -1 106.543 3.35305   1
   2  -6   1 101.640 3.74444   2
   2  -6   1 107.849 4.31686   3
  -3   6  -1 83.9573 2.88943   1
  -3   6  -1 85.6336 3.82309   4
   3  -6   1 90.9885 3.38940   2
   3  -6   1 83.4564 3.93141   3
  -4   6  -1 9.74375 1.84555   4
  -4   6  -1 10.3902 1.43578   1
   4  -6   1 9.90742 1.09383   1
   4  -6   1 7.39418 1.83480   3
   4  -6   1 11.4609 1.51128   2
  -5   6  -1 16.9189 2.27304   4
  -5   6  -1 16.5570 1.84173   1
   5  -6   1 12.7864 1.67443   1
   5  -6   1 19.1860 1.82965   2
   5  -6   1 21.5875 2.83835   3
  -6   6  -1 96.2399 4.16678   1
   6  -6   1 99.4255 3.99044   2
  -7   6  -1 30.1674 3.47687   1
  -7   6  -1 30.9833 4.02805   4
   7  -6   1 35.3185 3.98684   3
   7  -6   1 32.0582 2.76036   2
  -8   6  -1 14.5715 3.58758   4
  -8   6  -1 14.7057 3.37406   1
   8  -6   1 10.8945 3.49653   3
   8  -6   1 10.3931 2.36928   2
  -9   6  -1 6.90493 3.60666   4
  -9   6  -1 -4.4716 3.60524   1
   9  -6   1 5.96580 3.25720   3
   9  -6   1 4.51457 2.59025   2
 -10   6  -1 -2.4641 10.3693   1
 -10   6  -1 -1.9261 4.27147   4
  10  -6   1 -0.0898 3.26776   2
  10  -6   1 -3.4408 3.60685   3
 -11   6  -1 -0.7045 5.91792   1
 -11   6  -1 0.29826 4.61855   4
  11  -6   1 2.18616 4.39957   3
 -12   6  -1 1.55682 7.40656   1
  12  -6   1 0.57377 5.34223   3
   9   5  -1 -3.8674 3.92815   4
  -9  -5   1 5.60096 6.68686   2
  -9  -5   1 -15.318 6.68239   1
   8   5  -1 1.44859 3.16663   4
  -8  -5   1 -0.5386 6.01217   1
  -8  -5   1 0.10045 5.36639   2
   7   5  -1 6.19108 2.92111   4
  -7  -5   1 4.21993 4.16222   2
  -7  -5   1 7.48778 5.18739   1
   6   5  -1 0.35972 2.35783   4
  -6  -5   1 5.44892 4.00583   1
  -6  -5   1 -4.0748 3.04247   2
   5   5  -1 12.5412 2.52494   4
  -5  -5   1 11.8529 2.76425   2
  -5  -5   1 6.01506 3.80485   1
   4   5  -1 36.6204 2.86287   4
  -4  -5   1 42.7920 3.48013   2
  -4  -5   1 37.3391 4.39976   1
   3   5  -1 55.8537 2.82003   4
  -3  -5   1 54.5007 3.80250   1
  -3  -5   1 59.0712 3.13773   2
   2   5  -1 5.10215 1.22470   4
  -2  -5   1 4.92305 1.38672   2
  -2  -5   1 4.72475 1.83846   1
   1   5  -1 57.7032 2.53281   4
  -1  -5   1 51.7053 2.13666   3
  -1  -5   1 58.6000 3.34360   1
  -1  -5   1 58.0368 2.74622   2
  -1  -5   1 53.2499 2.21739   3
   0   5  -1 149.827 4.85540   4
   0  -5   1 140.976 4.78044   3
   0  -5   1 153.069 4.99728   2
   0  -5   1 147.698 4.65657   3
   0  -5   1 153.383 5.19627   1
  -1   5  -1 205.565 5.90876   1
  -1   5  -1 184.113 5.95893   1
  -1   5  -1 200.587 6.12947   4
   1  -5   1 196.328 6.03569   2
   1  -5   1 201.768 6.22328   3
  -2   5  -1 485.489 12.8999   1
  -2   5  -1 501.375 12.7809   1
  -2   5  -1 503.899 13.6660   4
   2  -5   1 487.153 13.7926   3
   2  -5   1 492.770 13.2981   2
  -3   5  -1 346.085 10.3221   4
   3  -5   1 362.724 9.84791   2
   3  -5   1 357.887 10.6155   3
   3  -5   1 346.727 9.26280   1
  -4   5  -1 152.958 5.67643   4
  -4   5  -1 156.123 4.71030   1
   4  -5   1 151.043 4.53804   1
   4  -5   1 159.699 5.03182   2
   4  -5   1 158.359 5.90842   3
  -5   5  -1 45.2632 3.03044   4
  -5   5  -1 39.6068 2.38439   1
   5  -5   1 43.4343 2.31365   2
   5  -5   1 38.8653 3.05065   3
  -6   5  -1 34.2906 2.85633   1
  -6   5  -1 24.0496 2.56498   4
   6  -5   1 25.4827 2.05964   2
   6  -5   1 26.6561 2.72715   3
  -7   5  -1 27.2424 3.76071   4
  -7   5  -1 28.6963 3.42261   1
   7  -5   1 22.2449 2.59650   2
   7  -5   1 25.3244 3.32195   3
  -8   5  -1 17.7347 3.41214   4
  -8   5  -1 23.7525 3.79906   1
   8  -5   1 19.5493 3.59729   3
   8  -5   1 19.6560 2.74366   2
  -9   5  -1 13.4997 4.48603   1
  -9   5  -1 8.03099 3.82011   4
   9  -5   1 6.87508 2.63053   2
   9  -5   1 0.61836 3.39624   3
 -10   5  -1 -8.2473 4.01149   4
 -10   5  -1 3.35441 5.23703   1
  10  -5   1 -2.8536 3.16822   2
  10  -5   1 6.57484 3.74281   3
 -11   5  -1 -2.3098 4.69070   4
 -11   5  -1 4.80526 6.38660   1
  11  -5   1 -0.7696 4.16148   3
 -12   5  -1 -1.9949 7.43157   1
  12  -5   1 5.42240 5.05673   3
   9   4  -1 -2.1063 3.88916   4
  -9  -4   1 2.21374 6.04982   2
   8   4  -1 5.03172 3.46759   4
  -8  -4   1 -2.0309 4.57795   2
  -8  -4   1 7.90423 4.72325   1
   7   4  -1 5.55367 2.74043   4
  -7  -4   1 4.84110 3.59177   2
  -7  -4   1 6.69223 4.05945   1
   6   4  -1 2.10070 2.15142   4
  -6  -4   1 0.04661 4.15891   1
  -6  -4   1 3.86693 3.09906   2
   5   4  -1 20.6203 2.70287   4
  -5  -4   1 21.8918 3.35085   2
   4   4  -1 53.0680 2.84630   4
  -4  -4   1 54.7015 3.24895   2
  -4  -4   1 52.1548 3.75711   1
   3   4  -1 141.933 4.92055   4
  -3  -4   1 146.159 5.87490   1
  -3  -4   1 143.346 5.25544   2
   2   4  -1 45.8778 2.20737   4
  -2  -4   1 48.5936 2.46233   2
  -2  -4   1 46.7554 2.91773   1
   1   4  -1 119.719 3.81338   4
  -1  -4   1 113.272 3.98517   2
  -1  -4   1 111.598 3.37553   3
  -1  -4   1 108.680 3.23059   3
  -1  -4   1 110.957 4.31926   1
   0   4  -1 64.5677 2.46770   4
   0  -4   1 62.1901 2.43487   3
   0  -4   1 70.2940 2.64094   2
   0  -4   1 69.6049 2.83856   1
   0  -4   1 61.7137 2.53646   3
  -1   4  -1 353.257 9.30542   1
  -1   4  -1 337.792 9.32151   1
  -1   4  -1 348.440 9.59769   4
   1  -4   1 346.358 9.67815   3
   1  -4   1 343.952 9.45169   2
  -2   4  -1 808.167 20.2470   1
  -2   4  -1 818.649 21.0809   4
   2  -4   1 778.112 20.2983   1
   2  -4   1 800.798 21.2098   3
   2  -4   1 805.005 20.6741   2
  -3   4  -1 358.137 9.57622   1
  -3   4  -1 361.872 10.4157   4
   3  -4   1 363.308 9.84674   2
   3  -4   1 365.468 9.50176   1
   3  -4   1 363.085 10.6063   3
  -4   4  -1 227.964 6.70885   1
  -4   4  -1 218.794 7.32160   4
   4  -4   1 234.253 7.59836   3
   4  -4   1 236.729 6.83051   1
   4  -4   1 228.849 6.69160   2
  -5   4  -1 79.8266 3.45761   1
  -5   4  -1 75.6715 3.79895   4
   5  -4   1 78.8035 3.79092   3
   5  -4   1 76.6818 3.11194   2
  -6   4  -1 23.0653 2.74547   4
  -6   4  -1 24.4967 2.76992   1
   6  -4   1 15.5755 2.35690   3
   6  -4   1 17.2941 1.91959   2
  -7   4  -1 61.1361 4.31756   1
  -7   4  -1 51.0067 4.27925   4
   7  -4   1 52.1504 3.74450   3
   7  -4   1 59.2994 3.32663   2
  -8   4  -1 34.8005 4.18258   4
  -8   4  -1 44.2977 4.16736   1
   8  -4   1 36.7424 4.38320   3
   8  -4   1 42.2469 3.30532   2
  -9   4  -1 17.3960 5.67074   1
  -9   4  -1 8.36886 3.89395   4
   9  -4   1 13.9745 3.05122   2
   9  -4   1 14.9068 3.44292   3
 -10   4  -1 1.97920 5.33629   1
 -10   4  -1 -0.6404 3.78500   4
  10  -4   1 5.99680 3.30580   2
  10  -4   1 4.42124 3.58439   3
 -11   4  -1 9.30522 6.66557   1
 -11   4  -1 -3.1885 4.12393   4
  11  -4   1 6.33989 4.82415   3
 -12   4  -1 -0.4343 6.95516   1
  12  -4   1 1.83199 6.05765   4
  12  -4   1 4.60742 5.17901   3
  10   3  -1 1.90436 5.11658   4
 -10  -3   1 1.61342 7.21366   1
 -10  -3   1 0.23779 6.15249   2
   9   3  -1 4.42591 3.39677   4
  -9  -3   1 7.44617 5.46671   1
  -9  -3   1 2.42724 4.95029   2
   8   3  -1 1.69765 3.06767   4
  -8  -3   1 5.48812 4.10732   2
  -8  -3   1 -3.6245 4.25769   1
   7   3  -1 6.01912 2.70010   4
  -7  -3   1 5.68235 3.68790   2
  -7  -3   1 5.22590 3.88085   1
   6   3  -1 5.10721 3.72662   4
  -6  -3   1 2.28748 2.79382   2
  -6  -3   1 2.82153 2.96575   1
   5   3  -1 31.1737 2.47263   4
  -5  -3   1 32.6785 3.02935   2
  -5  -3   1 32.8768 3.57231   1
   4   3  -1 120.661 4.58476   4
  -4  -3   1 124.124 5.47586   1
  -4  -3   1 132.679 5.00821   2
   3   3  -1 132.381 4.55627   4
  -3  -3   1 137.709 4.83876   2
  -3  -3   1 131.845 5.27551   1
   2   3  -1 236.655 6.89817   4
  -2  -3   1 235.477 7.58308   1
  -2  -3   1 244.270 7.21045   2
   1   3  -1 389.817 10.2741   4
  -1  -3   1 376.098 9.69619   3
  -1  -3   1 378.920 10.7651   1
  -1  -3   1 387.486 9.81820   3
  -1  -3   1 380.565 10.4565   2
   0   3  -1 205.755 6.17502   1
   0   3  -1 213.922 5.98611   4
   0   3  -1 220.294 6.24162   1
   0  -3   1 216.173 6.07983   2
   0  -3   1 214.221 5.94683   3
   0  -3   1 212.258 5.91934   3
  -1   3  -1 1289.94 32.0331   1
  -1   3  -1 1304.77 32.3581   4
  -1   3  -1 1243.17 32.2642   2
   1  -3   1 1290.78 32.4700   3
   1  -3   1 1231.03 32.4251   3
   1  -3   1 1294.17 32.1140   1
   1  -3   1 1290.35 32.2024   2
  -2   3  -1 276.782 7.88384   4
  -2   3  -1 268.240 7.55152   2
  -2   3  -1 274.419 7.27051   1
   2  -3   1 280.049 7.26544   1
   2  -3   1 274.394 8.02602   3
   2  -3   1 284.811 7.48838   2
  -3   3  -1 261.923 7.80077   4
  -3   3  -1 254.338 7.32924   2
  -3   3  -1 269.417 7.28367   1
   3  -3   1 249.704 7.10575   1
   3  -3   1 264.678 7.94499   3
   3  -3   1 269.026 7.21877   2
  -4   3  -1 139.412 4.63420   1
  -4   3  -1 135.668 4.99174   4
   4  -3   1 135.170 4.92559   3
   4  -3   1 131.557 4.40390   2
   4  -3   1 135.801 4.26368   2
  -5   3  -1 2.28320 1.47028   1
  -5   3  -1 2.75234 1.57608   4
   5  -3   1 2.01586 1.22572   3
   5  -3   1 3.52944 1.11917   2
  -6   3  -1 23.5501 2.58620   4
  -6   3  -1 22.3558 2.88256   1
   6  -3   1 20.9970 2.51015   3
   6  -3   1 15.9610 2.00862   2
  -7   3  -1 67.7163 4.57455   1
  -7   3  -1 63.0476 4.59603   4
   7  -3   1 61.8396 3.49614   2
   7  -3   1 72.8429 4.03769   3
  -8   3  -1 34.4650 4.59452   1
  -8   3  -1 31.0436 4.14677   4
   8  -3   1 40.5984 3.98016   3
  -9   3  -1 12.4494 4.51179   1
  -9   3  -1 4.81661 3.87426   4
   9  -3   1 10.9131 3.91029   3
 -10   3  -1 -0.1113 4.89858   1
 -10   3  -1 3.08978 3.75812   4
  10  -3   1 2.33172 3.63975   3
  10  -3   1 -6.0166 3.60878   2
 -11   3  -1 5.52891 6.51881   1
  11  -3   1 8.38411 5.26277   4
  11  -3   1 1.27268 4.22355   3
 -12   3  -1 8.46058 7.20342   1
  12  -3   1 -7.8489 5.11638   3
  12  -3   1 0.90916 5.25234   4
  10   2  -1 -3.1535 3.72190   4
 -10  -2   1 -2.3394 5.68938   2
 -10  -2   1 1.80827 5.96121   1
   9   2  -1 5.38319 3.82983   4
  -9  -2   1 -3.3687 4.49133   1
  -9  -2   1 4.63659 4.39850   2
   8   2  -1 6.98633 3.10964   4
  -8  -2   1 10.1292 3.89365   2
  -8  -2   1 4.72534 4.11954   1
   7   2  -1 2.12396 2.51494   4
   7   2  -1 8.54440 1.62908   3
  -7  -2   1 10.3361 3.15663   2
  -7  -2   1 3.63884 3.37719   1
   6   2  -1 -0.2955 2.00458   4
   6   2  -1 1.23589 2.12183   3
   6   2  -1 -0.5519 1.09783   3
  -6  -2   1 -0.9945 1.96301   2
  -6  -2   1 -2.3268 2.34792   1
   5   2  -1 24.0916 2.23249   4
   5   2  -1 23.0981 1.54747   3
   5   2  -1 23.4690 1.79397   3
  -5  -2   1 25.4345 2.49576   2
  -5  -2   1 24.8818 2.98511   1
   4   2  -1 188.323 6.06954   4
   4   2  -1 178.351 5.09577   3
   4   2  -1 181.755 5.06639   3
  -4  -2   1 190.944 6.97763   1
  -4  -2   1 188.858 6.27478   2
   3   2  -1 304.673 8.57800   4
  -3  -2   1 288.615 9.20077   1
  -3  -2   1 301.622 8.76659   2
   2   2  -1 317.215 8.47618   4
  -2  -2   1 294.620 9.00276   1
  -2  -2   1 309.745 8.66475   2
   1   2  -1 156.247 4.40552   4
   1   2  -1 147.662 4.84977   1
   1   2  -1 156.535 4.05912   3
  -1  -2   1 150.960 4.46312   4
  -1  -2   1 158.454 3.97421   3
  -1  -2   1 155.964 4.61781   2
  -1  -2   1 156.819 4.86794   1
   0   2  -1 32.4064 1.28570   3
   0   2  -1 27.3283 1.24716   2
   0   2  -1 31.7287 1.43259   1
   0   2  -1 28.9956 1.25366   4
   0  -2   1 30.3448 1.20971   3
   0  -2   1 30.2594 1.31691   2
   0  -2   1 29.3667 1.22320   4
  -1   2  -1 1025.94 25.5422   4
  -1   2  -1 1023.20 25.3194   2
  -1   2  -1 1026.95 25.2360   1
  -1   2  -1 967.754 25.6021   3
   1  -2   1 1011.16 25.2372   1
   1  -2   1 996.103 25.6035   3
  -2   2  -1 1168.32 29.7638   4
  -2   2  -1 1164.34 29.3041   2
  -2   2  -1 1116.92 29.5809   1
   2  -2   1 1149.90 29.3044   1
   2  -2   1 1181.14 29.2379   2
   2  -2   1 1158.66 29.8146   3
   2  -2   1 1230.88 30.2442   3
  -3   2  -1 657.555 17.5080   4
  -3   2  -1 656.844 17.1856   1
   3  -2   1 667.858 16.8231   2
   3  -2   1 621.128 17.0488   2
   3  -2   1 666.241 17.4477   1
   3  -2   1 657.954 17.4479   3
  -4   2  -1 118.918 4.31655   1
  -4   2  -1 117.551 3.73210   2
  -4   2  -1 114.246 4.44529   4
   4  -2   1 112.844 3.73154   2
   4  -2   1 119.973 4.35716   3
  -5   2  -1 10.8360 1.50038   2
  -5   2  -1 9.00178 1.79793   4
  -5   2  -1 11.8466 2.15123   1
   5  -2   1 9.62378 1.68800   3
  -6   2  -1 21.2572 2.22209   2
  -6   2  -1 19.9565 2.53679   4
  -6   2  -1 24.9713 3.20202   1
   6  -2   1 25.7147 2.39873   3
  -7   2  -1 54.9924 4.07725   1
  -7   2  -1 49.0111 4.21699   4
  -7   2  -1 50.5241 3.31736   2
   7  -2   1 53.3834 3.47595   3
  -8   2  -1 36.6157 3.59526   2
  -8   2  -1 34.0303 4.22041   4
  -8   2  -1 36.5004 6.60402   1
   8  -2   1 43.7739 3.66617   3
  -9   2  -1 9.89148 4.32450   1
  -9   2  -1 9.08656 3.36158   2
   9  -2   1 6.40297 3.45445   4
   9  -2   1 8.35800 3.15414   3
 -10   2  -1 1.33737 4.89384   1
 -10   2  -1 -4.3827 3.55859   2
  10  -2   1 -3.7049 3.45319   3
  10  -2   1 -4.9546 3.85650   4
 -11   2  -1 2.65922 5.65255   1
  11  -2   1 -2.5491 4.68981   3
  11  -2   1 4.11362 4.63298   4
 -12   2  -1 -5.2971 6.94439   1
  12  -2   1 -5.4763 5.72454   4
  11   1  -1 2.18516 5.20220   4
 -11  -1   1 -7.7130 6.89244   2
 -11  -1   1 -1.8921 6.27705   1
  10   1  -1 -6.3136 3.72855   4
 -10  -1   1 8.16664 6.06724   1
 -10  -1   1 4.11436 5.42063   2
   9   1  -1 7.41468 3.50833   4
  -9  -1   1 13.5008 4.49955   2
  -9  -1   1 4.40981 4.69039   1
   8   1  -1 9.51247 2.26651   3
   8   1  -1 12.3353 3.30490   4
  -8  -1   1 18.8079 4.13979   2
  -8  -1   1 8.87546 3.77442   1
   7   1  -1 4.14695 2.50849   4
   7   1  -1 6.55140 1.74629   3
  -7  -1   1 4.13238 2.96297   1
  -7  -1   1 2.84264 2.42362   2
   6   1  -1 15.4759 1.73990   3
   6   1  -1 14.3332 2.25948   4
  -6  -1   1 12.4718 2.55427   2
   5   1  -1 21.7161 1.82106   3
   5   1  -1 19.3785 2.04964   4
  -5  -1   1 23.6684 2.44934   1
  -5  -1   1 19.3829 2.15033   2
   4   1  -1 284.313 7.80126   3
   4   1  -1 282.059 8.43708   4
   4   1  -1 274.164 7.77217   3
  -4  -1   1 283.764 9.07739   1
  -4  -1   1 285.207 8.49706   2
   3   1  -1 667.886 16.8222   3
   3   1  -1 668.370 17.3626   4
  -3  -1   1 632.255 17.8891   1
  -3  -1   1 677.791 17.4890   2
  -3  -1   1 646.216 16.9000   3
   2   1  -1 77.5500 2.63556   4
   2   1  -1 81.0120 2.99315   2
   2   1  -1 79.9429 2.26768   3
  -2  -1   1 74.7374 2.72528   4
  -2  -1   1 79.6768 2.33438   3
  -2  -1   1 79.0911 3.08561   1
  -2  -1   1 79.1014 2.79896   2
   1   1  -1 24.7584 1.13776   2
   1   1  -1 25.4747 0.79176   3
   1   1  -1 25.4160 1.03276   4
   1   1  -1 27.0601 1.39279   1
  -1  -1   1 24.5776 1.36962   1
  -1  -1   1 25.9665 1.06669   4
  -1  -1   1 24.8395 1.20432   2
  -1  -1   1 25.0595 0.83030   3
   0   1  -1 96.5331 2.85109   3
   0   1  -1 103.359 2.89347   4
   0   1  -1 99.4845 2.96612   1
   0  -1   1 96.3466 2.82738   3
   0  -1   1 98.3467 2.96663   1
   0  -1   1 98.4161 2.90547   2
   0  -1   1 98.8648 2.81961   4
  -1   1  -1 695.889 16.9498   1
  -1   1  -1 593.787 17.2562   4
  -1   1  -1 697.709 16.7148   2
  -1   1  -1 654.273 17.0739   3
   1  -1   1 668.860 16.9040   1
   1  -1   1 691.318 17.1037   4
   1  -1   1 690.087 16.6894   2
  -2   1  -1 2028.98 49.9654   4
  -2   1  -1 2064.95 49.3302   2
  -2   1  -1 1992.13 49.8224   1
  -2   1  -1 1919.20 49.8394   3
   2  -1   1 2065.21 49.3360   2
   2  -1   1 1920.59 49.7250   1
   2  -1   1 1904.29 49.9062   4
   2  -1   1 1992.52 49.8093   3
  -3   1  -1 523.260 14.2792   4
  -3   1  -1 512.075 14.2139   1
   3  -1   1 531.982 13.5191   2
   3  -1   1 532.368 14.0195   3
  -4   1  -1 24.7814 2.06344   1
  -4   1  -1 26.7955 1.63288   2
  -4   1  -1 27.3522 2.11305   4
   4  -1   1 26.6854 1.55835   2
   4  -1   1 26.3693 1.76925   3
  -5   1  -1 9.88124 2.11420   1
  -5   1  -1 12.3432 1.62589   2
  -5   1  -1 13.7438 2.04139   4
   5  -1   1 12.2913 1.66789   3
  -6   1  -1 3.97434 1.77538   4
  -6   1  -1 2.53318 2.09213   1
  -6   1  -1 2.31221 1.79257   2
   6  -1   1 1.97220 1.34237   3
  -7   1  -1 32.4739 3.73895   4
  -7   1  -1 35.9348 3.23386   2
  -7   1  -1 41.2391 4.35061   1
   7  -1   1 34.8262 3.01517   3
   7  -1   1 37.0199 3.74334   4
  -8   1  -1 28.5782 4.67377   1
  -8   1  -1 28.5274 3.63647   2
   8  -1   1 29.1033 3.56536   3
   8  -1   1 19.3255 3.86347   4
  -9   1  -1 7.66330 4.53908   1
  -9   1  -1 3.38958 3.54855   2
   9  -1   1 -1.2854 3.31027   4
 -10   1  -1 5.13244 5.04195   1
  10  -1   1 2.21795 4.07718   4
  10  -1   1 -3.1779 4.02732   3
 -11   1  -1 0.01157 6.57555   1
  11  -1   1 -2.2378 4.70437   4
  11   0  -1 -0.3755 4.25030   4
 -11   0   1 8.65335 6.35169   1
 -11   0   1 -1.5776 6.56750   2
  10   0  -1 2.37691 3.61659   4
 -10   0   1 -5.0219 5.24300   1
 -10   0   1 -8.9298 4.53611   2
   9   0  -1 14.6146 3.17762   3
   9   0  -1 15.2150 3.78997   4
  -9   0   1 14.7983 4.22485   2
  -9   0   1 17.4174 4.66525   1
   8   0  -1 26.6008 3.39110   3
   8   0  -1 20.4324 3.58547   4
  -8   0   1 30.7147 3.86683   2
  -8   0   1 22.1882 4.43779   1
   7   0  -1 18.4006 3.94338   4
   7   0  -1 20.4637 2.49596   3
  -7   0   1 16.3397 3.78770   1
  -7   0   1 20.0652 3.03936   2
   6   0  -1 23.8048 2.35039   3
   6   0  -1 23.8148 2.45589   4
  -6   0   1 25.9861 3.39948   1
  -6   0   1 26.7815 2.69215   2
   5   0  -1 126.205 5.00327   4
  -5   0   1 134.219 5.44596   1
  -5   0   1 133.739 4.96661   2
   4   0  -1 344.931 10.0375   4
  -4   0   1 331.040 10.3966   1
  -4   0   1 354.650 10.0532   2
  -4   0   1 363.777 9.71369   3
   3   0  -1 918.688 23.7200   3
   3   0  -1 918.073 23.9587   4
  -3   0   1 941.498 23.7589   3
  -3   0   1 939.993 24.0503   2
  -3   0   1 928.105 24.3546   1
   2   0  -1 842.834 21.4319   4
   2   0  -1 792.260 21.4793   2
   2   0  -1 851.658 21.3345   3
  -2   0   1 866.056 21.3825   3
  -2   0   1 859.476 21.7619   1
  -2   0   1 849.176 21.4030   4
  -2   0   1 839.313 21.5831   2
   1   0  -1 423.697 10.4050   4
   1   0  -1 400.399 10.6192   1
   1   0  -1 412.974 10.5996   2
   1   0  -1 408.977 10.3584   4
   1   0  -1 408.748 10.4187   3
  -1   0   1 403.982 10.4301   3
  -1   0   1 406.465 10.6086   2
  -1   0   1 417.459 10.6305   1
  -1   0  -1 2790.80 70.4198   3
  -1   0  -1 2862.14 70.0432   2
   1   0   1 2893.55 70.0315   2
   1   0   1 2763.38 70.4112   3
   1   0   1 2769.36 70.0061   1
  -2   0  -1 112.903 3.17782   2
  -2   0  -1 112.232 3.77321   1
  -2   0  -1 107.442 3.39039   3
   2   0   1 108.932 3.29336   3
   2   0   1 111.468 3.10072   2
   2   0   1 112.165 4.02692   1
  -3   0  -1 437.446 12.4502   3
  -3   0  -1 474.855 12.8652   4
  -3   0  -1 481.783 13.1382   1
  -3   0  -1 484.585 12.3016   2
   3   0   1 444.631 12.1015   2
   3   0   1 481.396 12.3796   3
  -4   0  -1 157.553 5.42689   4
  -4   0  -1 153.085 5.69144   1
  -4   0  -1 157.792 4.93330   2
   4   0   1 154.753 4.85869   3
   4   0   1 151.967 5.43107   4
  -5   0  -1 32.3866 2.30319   2
  -5   0  -1 35.1035 3.03243   1
   5   0   1 32.7140 2.19692   3
   5   0   1 32.7370 2.53710   4
  -6   0  -1 2.60975 1.85450   2
  -6   0  -1 1.45190 2.08829   1
   6   0   1 3.20658 1.32549   3
   6   0   1 2.24107 1.77788   4
  -7   0  -1 35.4063 5.50352   1
  -7   0  -1 31.2371 3.60525   2
   7   0   1 35.4122 4.78750   4
   7   0   1 37.5800 2.87094   3
  -8   0  -1 12.6764 4.18975   1
  -8   0  -1 15.6868 3.51767   2
   8   0   1 8.55029 3.44141   4
   8   0   1 14.7460 2.40135   3
  -9   0  -1 6.70341 4.59054   1
  -9   0  -1 6.73893 4.11985   2
   9   0   1 5.47263 3.61259   4
   9   0   1 5.98865 2.79144   3
 -10   0  -1 1.17770 5.00995   2
 -10   0  -1 -3.5736 5.48453   1
  10   0   1 1.60935 4.24224   4
 -11   0  -1 8.84944 6.37073   1
  11   0   1 -3.7063 4.90506   4
  12  -1  -1 -5.3361 5.10063   4
 -12   1   1 -1.8990 6.99188   1
  11  -1  -1 -1.8663 4.23793   4
 -11   1   1 -3.3700 5.57522   2
 -11   1   1 2.94562 5.95206   1
  10  -1  -1 1.16874 3.68779   3
  10  -1  -1 -2.7441 3.89841   4
 -10   1   1 0.63968 4.22182   2
 -10   1   1 1.99230 5.26212   1
   9  -1  -1 19.1400 3.21081   3
   9  -1  -1 14.5868 3.60217   4
  -9   1   1 19.2516 4.66331   1
  -9   1   1 15.7262 4.39599   2
   8  -1  -1 49.8288 8.21711   4
   8  -1  -1 38.6832 3.59486   3
  -8   1   1 37.6640 4.80770   1
  -8   1   1 47.1690 4.09088   2
   7  -1  -1 35.7261 3.04693   4
   7  -1  -1 34.4380 3.01558   3
  -7   1   1 31.0318 3.30501   2
  -7   1   1 40.2948 4.14875   1
  -6   1   1 6.30525 1.73460   3
  -6   1   1 10.0918 2.05533   2
  -6   1   1 9.30636 2.52461   1
  -6   1   1 9.75979 2.27550   4
  -5   1   1 78.9781 3.79587   1
  -5   1   1 78.0256 3.56471   4
  -5   1   1 75.7316 3.38247   2
  -5   1   1 75.5972 3.46669   3
  -4   1   1 345.263 9.79939   3
  -4   1   1 344.895 10.0865   1
  -4   1   1 345.708 9.83905   2
  -4   1   1 343.008 9.85532   4
   3  -1  -1 750.391 20.6396   2
   3  -1  -1 758.701 20.6905   4
   3  -1  -1 824.260 21.2974   1
   3  -1  -1 768.096 20.6967   3
  -3   1   1 819.632 20.7678   3
  -3   1   1 826.606 20.7729   2
  -3   1   1 821.945 20.7100   4
  -3   1   1 816.518 20.8475   1
   2  -1  -1 3071.49 75.4815   1
   2  -1  -1 3005.35 75.5433   2
   2  -1  -1 3072.02 75.4086   4
  -2   1   1 3018.81 75.5623   2
  -2   1   1 2992.93 75.5667   3
   1  -1  -1 327.085 8.50304   4
   1  -1  -1 339.549 8.51661   1
   1  -1  -1 340.147 8.82696   2
  -1   1   1 320.266 8.79938   2
  -1   1   1 338.292 8.79327   3
  -1   1   1 336.079 8.53629   1
  -1   1   1 339.043 8.54603   4
   0  -1  -1 -0.0241 0.34596   2
   0  -1  -1 -0.3763 0.29266   4
   0  -1  -1 -0.5529 0.26892   3
   0  -1  -1 -0.2504 0.35638   1
   0   1   1 -0.7609 0.32532   1
   0   1   1 -0.9264 0.29873   2
   0   1   1 -0.3980 0.29361   4
   0   1   1 -0.4755 0.27402   3
  -1  -1  -1 1101.33 28.5095   4
  -1  -1  -1 1130.26 28.0916   3
  -1  -1  -1 1101.56 28.6531   1
   1   1   1 1112.18 28.6363   1
   1   1   1 1145.15 28.0717   3
   1   1   1 1152.83 28.2204   2
   1   1   1 1148.54 28.4995   4
  -2  -1  -1 47.0015 1.70811   3
  -2  -1  -1 50.3549 1.78984   2
  -2  -1  -1 46.4487 2.28708   1
   2   1   1 46.9275 2.07753   4
   2   1   1 46.4356 1.69596   2
  -3  -1  -1 372.930 10.9131   1
  -3  -1  -1 368.406 9.99878   2
  -3  -1  -1 355.790 9.87320   3
   3   1   1 372.044 10.5101   4
   3   1   1 366.940 9.65230   3
  -4  -1  -1 232.211 7.93937   1
  -4  -1  -1 235.249 6.96220   2
   4   1   1 228.398 7.40599   4
   4   1   1 224.016 6.45637   3
  -5  -1  -1 22.3384 2.40201   2
  -5  -1  -1 18.5289 2.84713   1
   5   1   1 16.8055 1.55343   3
   5   1   1 17.7671 1.95307   4
  -6  -1  -1 -1.4914 2.44061   1
  -6  -1  -1 -1.0929 1.83627   2
   6   1   1 0.48809 1.30847   3
   6   1   1 1.22134 2.23815   4
  -7  -1  -1 21.6582 3.32363   2
  -7  -1  -1 28.7255 4.63308   1
   7   1   1 21.5081 3.43710   4
   7   1   1 24.3162 2.55193   3
  -8  -1  -1 9.90088 3.49565   2
  -8  -1  -1 6.75867 4.26800   1
   8   1   1 2.23816 3.11058   4
   8   1   1 7.48310 2.14604   3
  -9  -1  -1 4.20683 4.47008   2
  -9  -1  -1 6.31748 4.94563   1
   9   1   1 -1.6749 3.22285   4
 -10  -1  -1 -0.4853 5.43364   2
 -10  -1  -1 -0.8490 5.79154   1
  10   1   1 4.39250 4.00818   4
 -11  -1  -1 -3.6079 6.52443   1
  11   1   1 -4.9608 4.78783   4
  12  -2  -1 -1.6502 4.91698   4
 -12   2   1 6.05265 7.09841   1
  11  -2  -1 9.21364 4.69641   4
  11  -2  -1 -3.0472 4.28769   3
 -11   2   1 1.06699 5.02732   2
 -11   2   1 0.15418 5.69601   1
  10  -2  -1 5.91800 7.06698   3
  10  -2  -1 1.82936 4.20730   4
 -10   2   1 5.81651 4.94377   1
 -10   2   1 11.1746 4.52410   2
   9  -2  -1 14.3316 3.60716   4
  -9   2   1 25.9509 3.60808   2
  -9   2   1 18.8961 4.40291   1
   8  -2  -1 62.0056 4.09859   3
  -8   2   1 53.5530 5.18255   1
  -8   2   1 52.7487 4.03957   2
  -8   2   1 52.1988 4.43875   4
   7  -2  -1 77.3516 4.38458   3
  -7   2   1 81.7509 4.85972   1
  -7   2   1 78.4337 4.01560   2
  -7   2   1 73.8517 4.27840   4
  -6   2   1 42.4712 2.92921   4
  -6   2   1 42.4564 3.20406   1
  -6   2   1 43.3955 2.96865   3
  -6   2   1 39.5031 2.82148   2
  -5   2   1 15.5262 1.93648   3
  -5   2   1 13.9668 1.95431   4
  -5   2   1 15.4388 2.12159   1
  -5   2   1 16.1360 1.79372   2
  -4   2   1 428.095 12.0292   3
  -4   2   1 424.343 11.8253   2
  -4   2   1 424.089 11.8675   1
  -4   2   1 433.501 11.9420   4
   3  -2  -1 765.969 19.9784   1
  -3   2   1 784.263 20.1821   4
  -3   2   1 773.449 20.1567   2
  -3   2   1 773.776 19.9675   1
  -3   2   1 779.880 20.3971   3
   2  -2  -1 1995.54 50.2199   2
   2  -2  -1 2091.15 49.7275   1
   2  -2  -1 2006.59 49.7204   1
   2  -2  -1 1922.07 50.2620   3
   2  -2  -1 1963.50 49.9435   4
  -2   2   1 2017.74 50.0142   4
  -2   2   1 2053.61 50.3470   3
  -2   2   1 1951.10 50.2276   2
   1  -2  -1 343.568 8.71450   1
   1  -2  -1 338.763 9.20477   3
   1  -2  -1 351.214 9.19895   2
   1  -2  -1 337.433 8.91150   4
  -1   2   1 350.670 8.97077   4
  -1   2   1 347.827 9.23650   3
  -1   2   1 327.648 9.17818   2
  -1   2   1 359.341 8.70067   1
   0  -2  -1 36.7440 1.45261   2
   0  -2  -1 34.8946 1.43098   4
   0  -2  -1 36.5719 1.35108   3
   0   2   1 39.2210 1.44515   4
   0   2   1 37.0036 1.41471   3
   0   2   1 37.2223 1.51348   1
   0   2   1 35.4830 1.45751   2
  -1  -2  -1 270.555 7.70205   1
  -1  -2  -1 265.752 7.21272   2
  -1  -2  -1 261.682 6.83398   3
   1   2   1 265.519 7.35705   4
   1   2   1 254.917 7.19887   2
   1   2   1 274.676 6.91305   3
  -2  -2  -1 293.798 7.77093   3
  -2  -2  -1 302.057 8.97105   1
  -2  -2  -1 297.990 8.22146   2
   2   2   1 300.137 7.69348   3
   2   2   1 297.570 8.49069   4
  -3  -2  -1 138.356 4.48316   2
  -3  -2  -1 131.836 4.00523   3
  -3  -2  -1 132.588 5.23532   1
   3   2   1 131.809 4.71272   4
   3   2   1 135.106 3.75706   3
  -4  -2  -1 92.6102 4.58333   1
  -4  -2  -1 97.5415 3.75143   2
   4   2   1 94.6965 3.92934   4
   4   2   1 85.1129 3.37748   3
   4   2   1 94.1899 2.92414   3
  -5  -2  -1 20.0218 2.41481   2
   5   2   1 15.8746 1.43898   3
   5   2   1 16.3712 2.34856   4
  -6  -2  -1 5.34958 2.18334   2
  -6  -2  -1 6.18613 3.11746   1
   6   2   1 2.57155 1.21628   3
  -7  -2  -1 6.79840 3.79810   1
  -7  -2  -1 10.6986 3.19801   2
   7   2   1 13.1255 1.86394   3
   7   2   1 7.45594 3.02537   4
  -8  -2  -1 6.94294 3.87049   2
  -8  -2  -1 -0.3412 4.19786   1
   8   2   1 0.63118 3.15328   4
  -9  -2  -1 -4.0974 4.75928   1
  -9  -2  -1 -4.9038 5.09763   2
   9   2   1 2.74034 3.89469   4
 -10  -2  -1 0.04778 6.13670   1
  12  -3  -1 2.26898 5.25996   3
  12  -3  -1 8.03279 5.42936   4
 -12   3   1 14.3193 7.46795   1
  11  -3  -1 4.45683 4.79667   3
  11  -3  -1 2.10768 4.56461   4
 -11   3   1 -7.3593 4.89670   2
 -11   3   1 4.61716 5.49301   1
  10  -3  -1 5.32758 3.96216   3
 -10   3   1 2.34760 3.69710   4
 -10   3   1 -2.9141 3.92415   2
 -10   3   1 4.53360 4.82348   1
   9  -3  -1 15.8697 3.61698   3
  -9   3   1 11.9282 3.59862   4
  -9   3   1 16.5867 4.75038   1
  -9   3   1 13.2528 3.34080   2
  -8   3   1 61.7690 4.49653   1
  -8   3   1 44.0260 4.35823   4
  -8   3   1 52.4569 3.86106   2
  -7   3   1 83.5930 4.54165   4
  -7   3   1 91.6199 4.66473   3
  -7   3   1 88.8458 4.30919   2
  -7   3   1 89.3825 4.62546   1
  -6   3   1 73.9124 3.72768   4
  -6   3   1 71.3307 3.39453   2
  -6   3   1 63.2453 3.61205   1
  -6   3   1 64.9831 3.73929   3
   5  -3  -1 38.3224 2.33471   2
  -5   3   1 35.0257 2.43090   4
  -5   3   1 36.7325 2.42558   1
  -5   3   1 38.0097 2.61086   3
   4  -3  -1 371.612 10.6480   2
   4  -3  -1 362.961 10.2589   1
  -4   3   1 378.601 10.7364   4
  -4   3   1 386.152 10.3259   1
  -4   3   1 381.754 10.9751   3
   3  -3  -1 535.310 13.3565   1
   3  -3  -1 519.339 13.9762   2
  -3   3   1 520.012 13.3163   1
  -3   3   1 507.384 13.8762   4
  -3   3   1 512.037 14.2251   3
   2  -3  -1 597.057 15.7195   2
  -2   3   1 596.295 15.9275   3
  -2   3   1 598.549 15.5716   4
   1  -3  -1 44.5721 1.95186   3
   1  -3  -1 44.4517 1.92186   2
   1  -3  -1 46.8005 1.61976   1
  -1   3   1 45.2254 1.54545   1
  -1   3   1 46.5511 1.77222   4
  -1   3   1 46.6375 2.01959   3
   0  -3  -1 22.2868 1.17536   3
   0  -3  -1 21.6606 1.24720   2
   0  -3  -1 20.5937 1.42612   1
   0   3   1 22.9675 1.24556   4
   0   3   1 21.8212 1.43810   1
   0   3   1 22.1872 1.22782   3
  -1  -3  -1 117.680 4.31416   1
  -1  -3  -1 121.348 3.84226   2
  -1  -3  -1 119.421 3.32472   3
   1   3   1 120.528 3.50004   3
   1   3   1 116.832 3.83515   4
  -2  -3  -1 175.391 4.68794   3
  -2  -3  -1 175.665 5.42489   2
  -2  -3  -1 174.497 6.10616   1
   2   3   1 175.460 4.75411   3
   2   3   1 173.683 5.55473   4
  -3  -3  -1 115.155 3.50770   3
  -3  -3  -1 118.145 4.28916   2
  -3  -3  -1 116.355 4.99337   1
   3   3   1 120.576 3.36882   3
   3   3   1 121.368 4.45589   4
  -4  -3  -1 74.5972 4.15178   1
  -4  -3  -1 68.5993 3.35210   2
   4   3   1 68.5448 3.31136   4
   4   3   1 68.4275 2.63457   3
   4   3   1 64.0590 2.51009   3
  -5  -3  -1 17.4179 3.42134   1
  -5  -3  -1 14.4381 2.37259   2
   5   3   1 11.5961 2.31931   4
   5   3   1 16.8897 1.83586   3
   5   3   1 12.0957 1.11524   3
  -6  -3  -1 -0.0375 2.30055   2
  -6  -3  -1 -2.6542 3.22775   1
   6   3   1 2.20132 2.29405   4
   6   3   1 2.85951 1.13425   3
  -7  -3  -1 3.48222 3.57406   2
  -7  -3  -1 4.98111 3.77219   1
   7   3   1 1.96727 2.71623   4
  -8  -3  -1 3.76092 4.41567   2
  -8  -3  -1 -0.2213 4.63140   1
   8   3   1 1.10335 3.30328   4
  -9  -3  -1 8.66776 5.85040   2
  -9  -3  -1 3.32875 5.66656   1
   9   3   1 1.99532 3.61071   4
 -10  -3  -1 4.21596 7.15257   1
  10   3   1 1.81898 4.48292   4
  12  -4  -1 5.87044 5.46670   3
  12  -4  -1 4.85450 5.53093   4
 -12   4   1 12.1292 7.24314   1
  11  -4  -1 0.03641 4.61741   2
  11  -4  -1 0.20320 4.83974   3
 -11   4   1 -1.1935 4.29028   4
 -11   4   1 1.62099 5.81613   1
  10  -4  -1 1.48531 4.12147   2
  10  -4  -1 1.46715 3.69940   3
 -10   4   1 1.65688 3.80025   4
 -10   4   1 -5.6909 4.52013   1
   9  -4  -1 15.8187 4.00577   3
   9  -4  -1 20.8643 3.37321   2
  -9   4   1 15.1213 3.85636   4
  -9   4   1 22.9364 4.30418   1
   8  -4  -1 52.1197 3.88022   2
   8  -4  -1 58.5381 4.82868   3
  -8   4   1 52.3256 4.19471   1
  -8   4   1 45.9301 4.46442   4
  -8   4   1 48.0204 4.43378   3
   7  -4  -1 125.270 5.26807   2
  -7   4   1 130.283 5.71012   3
  -7   4   1 131.293 5.53491   1
  -7   4   1 133.247 5.91258   4
   6  -4  -1 68.5333 3.40477   2
  -6   4   1 63.4943 3.58333   4
  -6   4   1 63.5977 3.66972   3
  -6   4   1 64.0730 3.51638   1
   5  -4  -1 16.2104 1.77811   2
  -5   4   1 14.1223 1.98776   3
  -5   4   1 15.0634 1.87061   4
  -5   4   1 14.5196 1.74640   1
   4  -4  -1 6.56020 1.07079   1
   4  -4  -1 5.62762 1.23376   2
  -4   4   1 7.02638 1.43752   3
  -4   4   1 4.44533 1.27452   4
   3  -4  -1 635.165 16.9518   2
  -3   4   1 638.250 16.9270   4
  -3   4   1 631.465 17.2966   3
   2  -4  -1 430.538 11.6022   2
  -2   4   1 422.081 11.8154   3
  -2   4   1 417.448 11.4349   4
   1  -4  -1 310.457 8.97554   1
   1  -4  -1 330.012 9.06269   2
  -1   4   1 325.091 8.66326   1
  -1   4   1 322.941 9.11091   3
  -1   4   1 328.823 8.92656   4
   0  -4  -1 53.3620 2.15270   3
   0  -4  -1 50.3871 2.24649   2
   0  -4  -1 54.9184 2.51909   1
   0   4   1 55.4695 2.25633   4
   0   4   1 57.5323 2.33572   3
  -1  -4  -1 11.1651 1.70524   1
  -1  -4  -1 14.0149 1.30606   2
  -1  -4  -1 9.64179 0.87092   3
   1   4   1 11.3681 1.18889   4
   1   4   1 10.0254 1.15867   3
  -2  -4  -1 269.170 8.84284   1
  -2  -4  -1 272.784 8.16738   2
  -2  -4  -1 273.788 7.09689   3
   2   4   1 274.705 7.28987   3
   2   4   1 273.987 8.15167   4
  -3  -4  -1 89.5808 3.82112   2
  -3  -4  -1 85.3920 4.54325   1
   3   4   1 90.0472 3.71469   4
  -4  -4  -1 40.2248 2.98445   2
  -4  -4  -1 42.3201 4.74920   1
   4   4   1 35.4602 2.96168   4
  -5  -4  -1 -0.7771 3.23047   1
  -5  -4  -1 6.61491 2.89899   2
   5   4   1 6.81049 2.47159   4
  -6  -4  -1 0.74135 2.85213   2
  -6  -4  -1 -0.3351 3.78089   1
   6   4   1 -2.7018 2.20553   4
  -7  -4  -1 1.21173 4.35889   1
  -7  -4  -1 8.95888 3.61868   2
   7   4   1 4.78170 2.92782   4
  -8  -4  -1 6.25148 5.97610   1
  -8  -4  -1 7.96831 4.86327   2
   8   4   1 -1.5590 3.24942   4
  -9  -4  -1 5.79586 6.38274   1
  -9  -4  -1 12.2881 6.48569   2
   9   4   1 -1.1310 4.13879   4
  12  -5  -1 -12.107 4.85959   3
 -12   5   1 4.27249 5.36370   4
 -12   5   1 3.81022 6.91096   1
  11  -5  -1 -2.0224 4.46711   2
  11  -5  -1 1.26976 4.24298   3
 -11   5   1 6.37338 5.66041   1
 -11   5   1 6.19054 5.13762   4
  10  -5  -1 -2.5307 3.67284   2
  10  -5  -1 0.10139 3.62614   3
 -10   5   1 -0.6311 3.72375   4
   9  -5  -1 24.8983 4.41091   3
   9  -5  -1 32.4747 3.96590   2
  -9   5   1 38.8288 4.91959   4
  -9   5   1 37.2460 4.60313   1
   8  -5  -1 63.0121 4.11627   2
  -8   5   1 66.8857 4.20050   1
  -8   5   1 64.1506 5.15085   4
  -8   5   1 60.7946 4.93177   3
   7  -5  -1 99.9829 4.58536   2
  -7   5   1 97.7361 4.87170   4
  -7   5   1 98.2555 4.52266   1
   6  -5  -1 50.6736 2.98340   2
  -6   5   1 50.5340 3.44944   3
  -6   5   1 45.5742 3.14588   4
  -6   5   1 49.7590 2.85029   1
   5  -5  -1 0.41769 1.26929   2
   5  -5  -1 2.22065 1.01631   1
  -5   5   1 -0.7523 1.02890   1
  -5   5   1 0.89949 1.39538   4
  -5   5   1 0.61420 1.54801   3
   4  -5  -1 1.78669 0.92774   2
  -4   5   1 0.26020 1.28489   4
  -4   5   1 1.61293 1.31580   3
   3  -5  -1 906.516 24.7212   2
  -3   5   1 972.102 24.8891   4
  -3   5   1 960.122 25.2474   3
   2  -5  -1 468.911 12.7500   2
   2  -5  -1 470.731 11.8392   1
  -2   5   1 450.687 11.7272   1
  -2   5   1 458.771 12.9862   3
  -2   5   1 458.445 12.6638   4
   1  -5  -1 276.183 7.69617   1
   1  -5  -1 269.292 7.91255   2
  -1   5   1 271.440 7.99557   3
  -1   5   1 260.888 7.76783   4
  -1   5   1 263.051 7.57122   1
   0  -5  -1 33.3811 2.41842   1
   0  -5  -1 34.0141 1.95752   2
   0   5   1 34.5682 2.02570   3
   0   5   1 33.3924 1.90096   4
  -1  -5  -1 4.61397 1.33964   2
  -1  -5  -1 4.57710 1.61633   1
  -1  -5  -1 3.69710 0.87577   3
   1   5   1 6.45401 1.19430   3
   1   5   1 4.92499 1.22917   4
  -2  -5  -1 142.265 5.14477   2
  -2  -5  -1 141.964 5.84600   1
  -2  -5  -1 138.086 3.89916   3
   2   5   1 150.928 5.11360   4
   2   5   1 138.486 4.19157   3
  -3  -5  -1 20.5300 2.91866   1
  -3  -5  -1 16.6094 2.32586   2
   3   5   1 13.5742 2.27796   4
  -4  -5  -1 24.2223 3.22686   2
  -4  -5  -1 24.4307 4.76701   1
   4   5   1 22.8490 2.72370   4
  -5  -5  -1 6.09170 5.49019   2
  -5  -5  -1 8.78537 4.18121   1
   5   5   1 7.52892 2.32791   4
  -6  -5  -1 -3.1682 4.23265   1
  -6  -5  -1 -2.5676 3.60577   2
   6   5   1 -2.1105 2.63201   4
  -7  -5  -1 1.33177 4.58375   2
  -7  -5  -1 -3.6595 5.06479   1
   7   5   1 -0.9334 2.93624   4
  -8  -5  -1 2.20663 5.64369   2
  -8  -5  -1 10.1769 9.16910   1
   8   5   1 -0.7087 3.49154   4
  12  -6  -1 2.41911 5.32720   3
 -12   6   1 1.99878 6.80755   1
 -12   6   1 2.64555 5.03191   4
  11  -6  -1 0.07216 4.54086   2
  11  -6  -1 -2.7768 4.04500   3
 -11   6   1 11.4599 6.04260   1
 -11   6   1 3.42255 4.90049   4
  10  -6  -1 -2.4983 3.50455   2
  10  -6  -1 -0.0669 3.73307   3
 -10   6   1 0.02091 3.84741   4
 -10   6   1 4.60471 4.55123   1
   9  -6  -1 10.3204 3.61623   3
   9  -6  -1 13.6763 3.21343   2
  -9   6   1 10.3925 4.10675   4
  -9   6   1 10.4425 3.50718   1
   8  -6  -1 28.7026 3.34678   2
  -8   6   1 32.8435 5.02528   4
  -8   6   1 30.5746 4.04062   3
  -8   6   1 26.1187 3.44546   1
   7  -6  -1 43.5412 3.19607   2
  -7   6   1 36.0945 2.90317   1
  -7   6   1 41.2382 3.95600   3
   6  -6  -1 26.4261 2.41718   2
   6  -6  -1 21.3608 1.81502   1
  -6   6   1 28.7609 2.85063   4
  -6   6   1 22.9582 1.99577   1
  -6   6   1 25.1006 3.04638   3
   5  -6  -1 2.10017 1.28177   2
  -5   6   1 1.44239 1.82614   3
  -5   6   1 2.54941 1.65493   4
   4  -6  -1 77.5998 3.32368   2
  -4   6   1 74.3954 3.48348   4
  -4   6   1 67.7911 3.63063   3
   3  -6  -1 157.497 5.39541   2
  -3   6   1 161.816 5.53685   4
  -3   6   1 154.313 5.82295   3
   2  -6  -1 184.835 5.89935   2
   2  -6  -1 161.450 5.94068   1
  -2   6   1 182.209 6.26813   3
  -2   6   1 176.728 5.06563   1
  -2   6   1 187.868 5.93748   4
   1  -6  -1 111.967 4.03443   1
   1  -6  -1 111.002 4.12627   2
  -1   6   1 108.552 4.05619   4
  -1   6   1 103.651 4.22498   3
   0  -6  -1 64.4123 3.46207   1
   0  -6  -1 61.3825 2.98974   2
   0   6   1 60.8913 2.77766   4
   0   6   1 63.8196 2.92328   3
  -1  -6  -1 -3.0972 1.82102   1
  -1  -6  -1 0.64820 1.17954   2
  -1  -6  -1 1.92017 1.05117   3
   1   6   1 1.87057 1.23637   4
   1   6   1 1.77253 1.29830   3
  -2  -6  -1 20.7216 3.18487   1
   2   6   1 18.4265 2.36553   4
  -3  -6  -1 9.25206 3.81545   1
  -3  -6  -1 14.3706 2.71868   2
   3   6   1 14.4298 2.38703   4
  -4  -6  -1 13.7328 3.02414   2
  -4  -6  -1 15.9558 4.37891   1
   4   6   1 14.6156 2.73627   4
  -5  -6  -1 5.03101 3.54229   2
  -5  -6  -1 3.82601 4.48329   1
   5   6   1 1.97940 2.36783   4
  -6  -6  -1 4.05399 5.15505   1
  -6  -6  -1 1.18135 4.02815   2
   6   6   1 3.82071 3.03840   4
  -7  -6  -1 -8.8789 4.74011   2
  -7  -6  -1 5.72195 6.20529   1
   7   6   1 4.40705 3.24940   4
  -8  -6  -1 -8.7258 7.05787   1
  -8  -6  -1 7.05807 6.84830   2
   8   6   1 1.77937 4.03607   4
  12  -7  -1 -0.8366 5.15976   3
  12  -7  -1 -7.7421 6.70428   2
 -12   7   1 0.56469 6.88287   1
 -12   7   1 6.01321 5.60456   4
  11  -7  -1 9.26154 4.93275   3
  11  -7  -1 0.59588 4.17990   2
 -11   7   1 -7.4909 5.31720   1
 -11   7   1 2.42166 4.27759   4
  10  -7  -1 4.13032 4.45581   2
  10  -7  -1 4.96660 4.30843   3
 -10   7   1 2.54987 3.91938   1
 -10   7   1 3.18124 4.10496   4
   9  -7  -1 4.81249 3.22708   3
   9  -7  -1 4.81874 3.14585   2
  -9   7   1 3.68653 2.98774   1
  -9   7   1 -3.5993 3.60738   4
   8  -7  -1 25.6304 3.40204   2
  -8   7   1 17.2985 3.69998   3
  -8   7   1 18.0181 4.15009   4
  -8   7   1 27.4645 3.32221   1
   7  -7  -1 43.2312 3.04197   2
  -7   7   1 46.6086 2.72940   1
  -7   7   1 32.6413 4.05389   4
  -7   7   1 42.6245 4.46275   3
   6  -7  -1 29.9526 2.54291   2
  -6   7   1 29.6216 3.73954   3
   5  -7  -1 14.0488 1.94532   2
  -5   7   1 12.9792 1.97938   3
  -5   7   1 16.3467 2.38318   4
   4  -7  -1 0.75356 1.21046   2
  -4   7   1 1.54194 1.69021   3
  -4   7   1 3.14016 1.44621   4
   3  -7  -1 27.9805 2.14655   2
  -3   7   1 32.1663 2.34424   4
  -3   7   1 28.4358 2.71773   3
   2  -7  -1 67.0809 3.09865   2
  -2   7   1 66.7607 3.20686   4
  -2   7   1 64.3292 3.49343   3
  -2   7   1 58.5039 2.64429   1
   1  -7  -1 58.5011 3.23504   1
   1  -7  -1 56.5885 2.86585   2
  -1   7   1 58.0009 3.39455   3
  -1   7   1 62.8268 3.04806   4
   0  -7  -1 15.2819 2.59285   1
   0   7   1 16.9256 2.18036   3
   0   7   1 13.0876 2.25036   4
  -1  -7  -1 3.25569 2.30403   1
  -1  -7  -1 0.99152 1.81574   2
   1   7   1 0.23544 1.58150   3
   1   7   1 0.45172 1.68651   4
  -2  -7  -1 8.16895 1.99045   2
   2   7   1 7.48029 1.99363   4
  -3  -7  -1 10.0862 3.65645   1
  -3  -7  -1 9.89689 2.81933   2
   3   7   1 8.49909 2.59616   4
  -4  -7  -1 2.15622 2.93813   2
  -4  -7  -1 7.68493 4.75135   1
   4   7   1 1.11698 2.73099   4
  -5  -7  -1 9.66789 5.43690   1
  -5  -7  -1 2.70128 3.76699   2
   5   7   1 0.56569 2.71497   4
  -6  -7  -1 -11.347 6.16210   1
  -6  -7  -1 0.08499 4.41407   2
   6   7   1 1.49966 3.21345   4
  -7  -7  -1 -14.375 5.56998   2
  -7  -7  -1 1.49634 7.75982   1
   7   7   1 2.99250 3.74688   4
  12  -8  -1 8.20410 6.26502   3
  12  -8  -1 13.6295 5.29335   2
 -12   8   1 5.95376 6.27628   4
  11  -8  -1 15.4525 4.28755   2
  11  -8  -1 1.36912 4.56235   3
 -11   8   1 3.32493 5.15308   4
  10  -8  -1 2.32349 4.23252   3
  10  -8  -1 2.25542 3.56697   2
 -10   8   1 4.01169 4.26701   4
   9  -8  -1 7.55589 4.07221   3
   9  -8  -1 16.8435 6.53254   2
  -9   8   1 4.14746 4.14499   4
  -9   8   1 6.70359 2.95633   1
   8  -8  -1 34.0371 3.70561   2
   8  -8  -1 23.9973 2.39306   1
  -8   8   1 20.9798 3.84817   3
  -8   8   1 23.6552 4.26670   4
   7  -8  -1 26.7454 3.22537   2
  -7   8   1 25.2799 4.07902   3
  -7   8   1 22.4352 4.14606   4
   6  -8  -1 25.0199 3.75338   2
  -6   8   1 25.0993 4.30098   4
  -5   8   1 9.12262 2.82447   3
  -5   8   1 8.13088 2.43211   4
  -4   8   1 2.78108 1.92870   4
  -4   8   1 -0.9427 1.83440   3
   3  -8  -1 18.8927 2.64196   2
  -3   8   1 23.4491 3.14440   4
  -3   8   1 19.3248 2.53550   3
   2  -8  -1 36.2781 2.83672   2
  -2   8   1 38.0278 3.12233   4
  -2   8   1 45.0746 3.30928   3
  -2   8   1 37.5340 2.42181   1
   1  -8  -1 24.3519 2.56999   2
   1  -8  -1 25.1034 2.86709   1
  -1   8   1 30.4001 2.99123   3
  -1   8   1 21.2468 2.77896   4
   0  -8  -1 5.55635 1.78281   2
   0  -8  -1 0.26719 2.53315   1
   0   8   1 8.65379 2.26660   3
   0   8   1 6.11894 2.04748   4
  -1  -8  -1 -0.6501 1.79248   2
  -1  -8  -1 4.69649 2.85324   1
   1   8   1 0.97046 1.79458   4
  -2  -8  -1 -6.6495 4.08283   1
  -2  -8  -1 3.43278 2.10788   2
   2   8   1 2.12618 2.31386   4
  -3  -8  -1 3.65894 2.68103   2
  -3  -8  -1 -6.9706 4.77749   1
   3   8   1 2.05718 2.36071   4
  -4  -8  -1 -7.2040 5.44946   1
  -4  -8  -1 -1.8458 3.47544   2
   4   8   1 -0.1441 2.74799   4
  -5  -8  -1 7.95044 4.49004   2
  -5  -8  -1 11.4385 6.67979   1
   5   8   1 -4.1893 3.34007   4
  -6  -8  -1 -3.2126 5.39948   2
  -6  -8  -1 1.22244 7.91191   1
   6   8   1 -8.3329 3.43788   4
  12  -9  -1 7.50064 6.32934   3
  12  -9  -1 -0.8998 5.25518   2
 -12   9   1 -0.5367 6.20165   4
  11  -9  -1 1.30000 4.83046   3
  11  -9  -1 9.40532 4.45213   2
 -11   9   1 5.11186 5.77409   4
  10  -9  -1 8.59661 4.46134   3
  10  -9  -1 5.38597 3.86953   2
 -10   9   1 4.27951 4.90851   4
   9  -9  -1 1.17816 2.93160   2
   9  -9  -1 3.78143 3.71985   3
  -9   9   1 4.00283 3.93966   4
   8  -9  -1 25.4712 3.72981   2
  -8   9   1 17.8203 4.06163   3
  -8   9   1 19.6978 4.42225   4
   7  -9  -1 8.93484 2.73149   2
  -7   9   1 9.04750 3.31971   4
  -7   9   1 9.64978 3.78732   3
   6  -9  -1 9.00222 4.79035   2
  -6   9   1 7.65333 3.11993   3
  -6   9   1 7.61101 3.30625   4
  -5   9   1 6.10605 2.71708   4
  -5   9   1 0.25700 3.11811   3
   4  -9  -1 4.87119 2.39784   2
  -4   9   1 1.90910 2.30308   4
  -4   9   1 2.48619 2.88995   3
   3  -9  -1 1.21104 1.69786   2
  -3   9   1 -0.4608 2.19515   4
  -3   9   1 -0.9971 2.52279   3
   2  -9  -1 92.1203 4.52689   2
  -2   9   1 97.9184 4.98273   4
  -2   9   1 92.5451 4.13231   1
  -2   9   1 96.5353 5.06044   3
   1  -9  -1 4.14115 2.75080   1
   1  -9  -1 1.49627 2.13175   2
  -1   9   1 2.81973 2.44515   3
  -1   9   1 6.31512 2.24090   4
   0  -9  -1 7.87585 3.26299   1
   0  -9  -1 1.41747 2.17138   2
   0   9   1 5.71607 2.63856   3
   0   9   1 1.55053 2.01411   4
  -1  -9  -1 -2.4095 1.74580   2
  -1  -9  -1 4.14773 3.96094   1
  -1  -9  -1 0.29439 3.34844   3
   1   9   1 -0.6695 2.04298   4
  -2  -9  -1 3.16059 4.57204   1
  -2  -9  -1 -2.6178 2.25539   2
   2   9   1 -3.0712 2.32755   4
  -3  -9  -1 0.27044 2.86541   2
  -3  -9  -1 3.53158 5.38687   1
   3   9   1 2.23252 2.81245   4
  -4  -9  -1 0.77377 3.79495   2
  -4  -9  -1 4.93933 6.83648   1
   4   9   1 0.28398 2.98830   4
  -5  -9  -1 5.33641 7.90350   1
  -5  -9  -1 1.79118 5.06399   2
   5   9   1 0.40783 3.71473   4
  12 -10  -1 0.62757 5.43310   2
  12 -10  -1 -7.3399 5.43589   3
 -12  10   1 3.25715 7.15847   4
  11 -10  -1 -1.5062 5.14844   3
  11 -10  -1 -2.0318 4.56770   2
 -11  10   1 2.94683 5.52304   4
  10 -10  -1 10.0875 5.12500   3
  10 -10  -1 -2.6928 3.76466   2
 -10  10   1 -4.7065 4.93579   4
   9 -10  -1 -1.9975 3.55089   2
   9 -10  -1 0.66580 4.19639   3
  -9  10   1 7.41440 4.87604   4
   8 -10  -1 11.6465 3.22241   2
  -8  10   1 0.79381 4.20513   4
  -8  10   1 2.90431 3.55518   3
   7 -10  -1 2.57005 2.81748   2
  -7  10   1 8.18809 3.97419   4
  -7  10   1 0.37775 3.26045   3
   6 -10  -1 -1.8643 2.21719   2
  -6  10   1 -1.7084 3.13408   3
  -6  10   1 1.68337 3.30410   4
   5 -10  -1 1.38542 2.15106   2
  -5  10   1 1.20983 2.85474   4
  -5  10   1 4.38106 3.37822   3
   4 -10  -1 0.94807 2.18570   2
  -4  10   1 0.95446 2.55248   4
  -4  10   1 -0.7084 3.40018   3
   3 -10  -1 2.31420 2.21395   2
  -3  10   1 1.18303 1.60343   1
  -3  10   1 1.97941 2.79773   4
  -3  10   1 2.14014 3.73539   3
   2 -10  -1 36.4911 3.50537   2
  -2  10   1 40.1153 4.50204   3
  -2  10   1 25.6557 3.20767   1
  -2  10   1 32.2115 3.69208   4
   1 -10  -1 -1.1556 2.18506   2
   1 -10  -1 -2.8944 3.16930   3
  -1  10   1 -0.1999 3.10533   3
  -1  10   1 0.66284 2.32836   4
  -1  10   1 -2.4472 3.37743   1
   0 -10  -1 -0.5159 2.44470   2
   0 -10  -1 1.70145 3.07975   3
   0 -10  -1 -4.4659 3.66620   1
   0  10   1 -1.2050 2.58954   4
  -1 -10  -1 2.24565 5.80239   1
  -1 -10  -1 2.20143 2.06371   2
   1  10   1 -1.5993 2.58554   4
  -2 -10  -1 2.04706 3.06862   2
  -2 -10  -1 2.95929 5.52873   1
   2  10   1 -2.6077 2.74968   4
  -3 -10  -1 -0.2528 3.76114   2
  -3 -10  -1 -2.6367 6.73843   1
   3  10   1 -2.5015 2.88718   4
  -4 -10  -1 3.26321 8.01627   2
  -4 -10  -1 0.46198 7.94094   1
   4  10   1 4.23844 3.63821   4
  11 -11  -1 1.04081 4.72635   2
  11 -11  -1 -2.7461 5.02388   3
 -11  11   1 -0.5694 6.11708   4
  10 -11  -1 -0.2517 4.63406   3
  10 -11  -1 -7.7112 4.17175   2
 -10  11   1 5.21087 5.07558   4
   9 -11  -1 1.87941 3.77128   2
   9 -11  -1 -11.949 4.22292   3
  -9  11   1 -7.1296 4.59683   4
   8 -11  -1 -2.3915 3.25759   2
   8 -11  -1 1.54356 4.64282   3
  -8  11   1 1.21712 4.28343   4
   7 -11  -1 4.29030 3.19277   2
  -7  11   1 2.02919 4.33485   4
  -7  11   1 3.39243 3.81548   3
   6 -11  -1 5.21924 2.84665   2
  -6  11   1 4.52045 3.68676   3
  -6  11   1 6.21421 4.00396   4
   5 -11  -1 2.59161 2.53213   2
  -5  11   1 -2.8301 3.61314   3
  -5  11   1 3.28175 3.10217   4
   4 -11  -1 2.80323 2.32866   2
  -4  11   1 0.24979 3.07554   4
  -4  11   1 -0.7369 3.76631   3
   3 -11  -1 3.45866 2.32116   2
  -3  11   1 2.63349 3.98946   3
  -3  11   1 4.10778 3.11492   4
   2 -11  -1 0.25602 2.60319   2
   2 -11  -1 0.85712 7.76120   3
  -2  11   1 -1.6551 3.18442   4
   1 -11  -1 -0.6794 3.76217   3
   1 -11  -1 2.03358 2.56443   2
  -1  11   1 -2.9922 3.92007   1
  -1  11   1 9.55309 3.02299   4
   0 -11  -1 0.25118 2.87448   2
   0  11   1 -2.5105 3.05357   4
   0  11   1 1.47784 5.18665   1
  -1 -11  -1 2.70669 6.18787   1
  -1 -11  -1 1.19242 2.86733   2
   1  11   1 -4.9453 2.95477   4
  -2 -11  -1 1.53152 3.52718   2
  -2 -11  -1 -5.6760 6.74383   1
  -3 -11  -1 -2.8684 7.87396   1
  -3 -11  -1 0.25785 5.25778   2
   3  11   1 3.91519 3.58319   4
  11 -12  -1 9.59834 6.16656   3
  11 -12  -1 -0.0856 5.32446   2
 -11  12   1 3.90263 7.02092   4
  10 -12  -1 -3.4389 4.35192   2
  10 -12  -1 -6.6771 4.92572   3
 -10  12   1 0.82100 6.44562   4
   9 -12  -1 4.26655 5.71690   3
   9 -12  -1 -2.0255 4.35345   2
  -9  12   1 -5.1663 5.31644   4
   8 -12  -1 -5.6607 4.81418   3
   8 -12  -1 2.24052 3.35894   2
  -8  12   1 4.05783 5.24435   4
   7 -12  -1 -0.8642 3.05103   2
   7 -12  -1 3.20128 5.25540   3
  -7  12   1 5.05167 4.48183   4
   6 -12  -1 4.83497 5.31126   3
   6 -12  -1 2.02690 3.05915   2
  -6  12   1 1.39947 4.02591   4
   5 -12  -1 2.56271 2.90805   2
   5 -12  -1 -0.4623 4.99185   3
  -5  12   1 3.91340 3.73403   4
   4 -12  -1 4.49505 3.15029   2
   4 -12  -1 -5.7737 4.77682   3
  -4  12   1 -5.7526 3.17892   4
   3 -12  -1 -1.2040 2.92529   2
   3 -12  -1 0.64829 4.88772   3
  -3  12   1 3.38742 3.04216   4
   2 -12  -1 -2.5900 4.78919   3
   2 -12  -1 3.68939 2.94542   2
  -2  12   1 3.28083 3.36998   4
   1 -12  -1 -0.4477 3.28927   2
  -1  12   1 9.53325 3.85360   4
   0 -12  -1 -4.0059 2.69179   2
   0  12   1 -1.7591 3.26021   4
  -1 -12  -1 3.74357 3.91836   2
   1  12   1 6.37152 3.71540   4
  10 -13  -1 13.0649 6.17933   3
  10 -13  -1 4.20672 4.75740   2
 -10  13   1 -8.3840 6.19878   4
   9 -13  -1 2.96401 4.53581   2
   9 -13  -1 2.75657 5.80438   3
  -9  13   1 2.22768 6.31674   4
   8 -13  -1 -1.0080 3.87473   2
   8 -13  -1 -0.7287 5.65270   3
  -8  13   1 9.90958 5.73685   4
   7 -13  -1 4.65708 5.86831   3
   7 -13  -1 -4.5815 3.35424   2
  -7  13   1 5.94123 5.24787   4
   6 -13  -1 3.22638 3.75650   2
   6 -13  -1 9.91068 6.19804   3
  -6  13   1 -2.8107 4.38965   4
   5 -13  -1 -1.2390 5.99024   3
   5 -13  -1 -0.1394 3.43066   2
  -5  13   1 -1.3947 4.01069   4
   4 -13  -1 0.71293 3.14860   2
   4 -13  -1 -3.1886 5.87578   3
  -4  13   1 -1.8125 3.76079   4
   3 -13  -1 6.42655 5.96066   3
   3 -13  -1 0.75918 3.28846   2
  -3  13   1 1.96097 3.97224   4
   1 -13  -1 6.35424 3.47764   2
  -1  13   1 -0.4132 4.06117   4
   0 -13  -1 1.92645 3.45146   2
   0  13   1 6.50908 3.94367   4
   8 -14  -1 2.72449 4.76204   2
   8 -14  -1 3.11955 6.67386   3
  -8  14   1 -8.0689 6.24768   4
   7 -14  -1 3.19809 4.37394   2
   7 -14  -1 4.65584 7.44684   3
  -7  14   1 3.85668 5.44928   4
   6 -14  -1 -1.7838 3.92715   2
   6 -14  -1 10.9522 7.11713   3
  -6  14   1 -7.0115 4.96099   4
   5 -14  -1 6.38477 7.08929   3
   5 -14  -1 -3.8799 3.59882   2
  -5  14   1 0.23335 4.60947   4
   4 -14  -1 -1.0744 6.98513   3
   4 -14  -1 -3.9706 3.75164   2
  -4  14   1 -1.9914 3.98942   4
   3 -14  -1 2.21533 3.69719   2
  -3  14   1 3.34752 4.19599   4
  -2  14  -2 -1.0676 4.66405   4
   2 -14   2 -3.9234 3.78141   2
  -3  14  -2 0.95707 4.72261   4
   3 -14   2 2.17225 3.18594   2
  -4  14  -2 6.60383 4.90056   4
   4 -14   2 -4.2289 6.37056   3
   4 -14   2 -3.4528 3.78359   2
  -5  14  -2 -1.1463 4.87958   4
   5 -14   2 0.20854 6.38833   2
   5 -14   2 -0.3044 6.41920   3
  -6  14  -2 3.42877 5.43055   4
   6 -14   2 -0.3621 4.23931   2
   6 -14   2 4.55760 5.85905   3
  -7  14  -2 -1.1792 5.61378   4
   7 -14   2 -0.6409 9.34780   3
   7 -14   2 -6.7398 4.36991   2
   0  13  -2 0.77053 4.61640   4
   0 -13   2 -0.3423 3.88312   2
  -1  13  -2 -1.0729 3.97433   4
   1 -13   2 -3.3422 3.69619   2
  -2  13  -2 0.25437 3.86545   4
   2 -13   2 0.50561 3.15996   2
  -3  13  -2 -1.5243 3.77236   4
   3 -13   2 16.5765 5.09140   3
   3 -13   2 1.94504 3.13796   2
  -4  13  -2 0.42045 3.58820   4
   4 -13   2 6.51233 3.57980   2
   4 -13   2 -5.3405 4.95925   3
  -5  13  -2 -4.3603 4.05911   4
   5 -13   2 1.13989 3.61715   2
   5 -13   2 0.11763 5.28323   3
  -6  13  -2 -0.5200 4.48797   4
   6 -13   2 4.99937 5.33195   3
   6 -13   2 -6.6906 3.46422   2
  -7  13  -2 7.39306 8.57497   4
   7 -13   2 5.76328 4.99573   3
   7 -13   2 0.20168 4.10767   2
  -8  13  -2 5.55416 5.41744   4
   8 -13   2 0.90392 4.17027   2
   8 -13   2 0.91493 5.67219   3
  -9  13  -2 1.47273 5.81842   4
   9 -13   2 -5.2782 4.32779   2
   9 -13   2 3.50953 5.26400   3
   2  12  -2 2.73163 4.10904   4
   2  12  -2 -5.5222 7.14728   1
  -2 -12   2 -1.5893 4.25361   2
   1  12  -2 0.38743 6.24656   1
  -1 -12   2 -4.8917 4.17975   2
   0  12  -2 3.60916 5.85743   1
   0  12  -2 -0.5040 3.71784   4
   0 -12   2 -3.1334 3.26522   2
  -1  12  -2 0.15004 3.23436   4
   1 -12   2 0.52541 2.49258   2
  -2  12  -2 0.87821 3.10379   4
   2 -12   2 1.11673 4.28988   3
   2 -12   2 -2.4503 2.68831   2
  -3  12  -2 -4.0073 3.20423   4
   3 -12   2 -8.4214 4.07722   3
   3 -12   2 -2.0062 3.13554   2
  -4  12  -2 1.63846 3.35144   4
   4 -12   2 2.05757 3.14471   2
   4 -12   2 3.38047 4.24437   3
  -5  12  -2 2.27037 3.98623   4
   5 -12   2 -1.6464 4.17096   3
   5 -12   2 -3.1569 3.10129   2
  -6  12  -2 4.98263 4.20341   4
   6 -12   2 1.17154 3.18115   2
   6 -12   2 -4.8000 4.46199   3
  -7  12  -2 6.03947 5.01798   4
   7 -12   2 -1.8982 4.21380   3
   7 -12   2 -2.1331 3.17537   2
  -8  12  -2 4.75666 5.22638   4
   8 -12   2 -1.0433 3.52825   2
   8 -12   2 -0.5728 4.43632   3
   9 -12   2 4.39533 4.13712   2
   9 -12   2 2.24158 7.39561   3
 -10  12  -2 1.76070 6.18803   4
  10 -12   2 -0.3196 4.88885   3
   3  11  -2 -3.0968 3.74720   4
   3  11  -2 -8.9206 7.22534   1
  -3 -11   2 2.72851 4.21414   2
   2  11  -2 -2.0687 3.38843   4
   2  11  -2 0.00521 6.02669   1
  -2 -11   2 1.43669 3.85936   2
   1  11  -2 2.91666 5.43966   1
   1  11  -2 1.49443 3.15883   4
  -1 -11   2 1.74689 3.14738   2
   0  11  -2 -1.4201 3.14737   4
   0  11  -2 5.77058 4.68694   1
   0 -11   2 3.25831 3.06926   2
  -1  11  -2 1.29085 3.52676   1
  -1  11  -2 0.45749 2.81260   4
   1 -11   2 10.1122 3.23712   3
   1 -11   2 2.47822 2.26294   2
  -2  11  -2 0.76440 2.92862   1
  -2  11  -2 -3.2118 2.76790   4
   2 -11   2 -2.8173 2.50584   2
   2 -11   2 9.41032 5.89345   3
  -3  11  -2 2.71427 2.80209   4
   3 -11   2 9.02654 7.27658   3
   3 -11   2 4.33302 2.85766   2
  -4  11  -2 -0.0200 2.93530   4
   4 -11   2 -4.0433 3.52368   3
   4 -11   2 -1.1932 2.69889   2
  -5  11  -2 -0.4691 3.51275   4
   5 -11   2 -0.4511 3.64649   3
   5 -11   2 9.43329 2.81859   2
  -6  11  -2 1.63023 3.88012   4
   6 -11   2 0.94024 2.63812   2
   6 -11   2 -4.4647 3.48005   3
  -7  11  -2 -6.8498 3.58763   4
   7 -11   2 -2.3266 4.14701   3
   7 -11   2 1.24557 2.84754   2
  -8  11  -2 -7.0589 4.06169   4
   8 -11   2 -4.5529 3.71515   3
   8 -11   2 -3.5917 3.39194   2
  -9  11  -2 -2.5853 4.52497   4
   9 -11   2 -2.9310 3.44580   2
   9 -11   2 -2.0604 3.97441   3
  10 -11   2 3.18787 4.97472   3
 -11  11  -2 -7.4024 5.58519   4
  11 -11   2 -4.3338 5.21754   3
   5  10  -2 -6.4514 3.70827   4
  -5 -10   2 -1.7182 4.81150   2
   4  10  -2 -2.0743 3.45300   4
   4  10  -2 0.23326 6.38541   1
   3  10  -2 6.65931 5.63315   1
   3  10  -2 0.94861 3.14076   4
  -3 -10   2 5.23542 3.67797   2
   2  10  -2 10.2830 4.89248   1
   2  10  -2 -1.2440 2.76611   4
  -2 -10   2 1.00306 3.41118   2
   1  10  -2 10.7370 3.28188   4
   1  10  -2 5.95576 5.42200   1
  -1 -10   2 3.66410 2.90441   2
   0  10  -2 4.23114 2.61849   4
   0  10  -2 1.55855 3.44007   1
   0 -10   2 -1.3385 1.95821   2
   0 -10   2 3.13622 2.27476   3
  -1  10  -2 1.85656 2.93535   1
  -1  10  -2 -2.0739 2.45332   4
   1 -10   2 -0.0045 2.55788   3
   1 -10   2 -2.7693 1.88950   2
  -2  10  -2 3.76128 2.45656   4
  -2  10  -2 3.81914 2.31845   1
   2 -10   2 -2.5044 2.61687   3
   2 -10   2 -2.2531 2.19916   2
  -3  10  -2 8.12344 2.06965   1
  -3  10  -2 -0.5601 2.37630   4
   3 -10   2 -1.7715 2.94531   3
   3 -10   2 3.23093 2.19481   2
  -4  10  -2 18.4516 1.95630   1
  -4  10  -2 23.2844 3.95230   4
   4 -10   2 21.9213 3.01513   2
   4 -10   2 16.4350 4.05915   3
  -5  10  -2 4.32826 3.21997   4
   5 -10   2 8.40166 2.55432   2
   5 -10   2 4.56362 3.24875   3
  -6  10  -2 -0.5226 3.16854   4
   6 -10   2 5.93581 3.31031   3
   6 -10   2 1.11710 2.40964   2
  -7  10  -2 1.24493 3.91213   4
   7 -10   2 5.08367 3.57093   3
   7 -10   2 -1.1933 2.63540   2
  -8  10  -2 1.44655 4.16553   4
   8 -10   2 -3.1945 3.38900   3
   8 -10   2 -1.1799 3.44493   2
  -9  10  -2 -5.9091 4.47822   4
   9 -10   2 -1.5690 3.86661   3
   9 -10   2 4.95973 3.48040   2
 -10  10  -2 -2.2636 5.04275   4
  10 -10   2 0.60531 3.95152   3
 -11  10  -2 -5.8101 5.90773   4
  11 -10   2 -0.5002 4.91050   3
   6   9  -2 4.96292 7.12607   1
   6   9  -2 4.78589 3.96471   4
  -6  -9   2 -0.0235 5.55825   2
  -6  -9   2 -9.6522 8.82464   1
   5   9  -2 -0.8819 3.43160   4
   5   9  -2 -3.0172 6.05476   1
  -5  -9   2 -1.5423 4.77340   2
  -5  -9   2 -5.8027 7.62218   1
   4   9  -2 -1.5193 2.81710   4
   4   9  -2 -3.0103 5.73353   1
  -4  -9   2 0.83768 3.39534   2
   3   9  -2 3.91530 4.67487   1
   3   9  -2 -0.9652 2.61137   4
  -3  -9   2 0.20769 2.74460   2
   2   9  -2 10.4423 2.82777   4
   2   9  -2 12.0206 4.48309   1
  -2  -9   2 12.2452 3.09990   2
   1   9  -2 6.91344 2.40429   4
   1   9  -2 2.72173 3.83622   1
  -1  -9   2 11.3860 2.65099   2
  -1  -9   2 6.53253 1.62329   3
   0   9  -2 9.62426 3.07099   1
   0   9  -2 9.23805 2.45187   4
   0  -9   2 12.9713 2.16024   3
   0  -9   2 4.70331 1.95672   2
  -1   9  -2 4.85781 2.43848   1
  -1   9  -2 -0.6944 2.34543   4
   1  -9   2 -0.3485 1.90089   3
   1  -9   2 -1.2943 1.91900   2
  -2   9  -2 18.9571 3.06816   4
  -2   9  -2 17.6852 2.37855   1
   2  -9   2 13.5878 2.51214   2
   2  -9   2 19.1743 2.79456   3
  -3   9  -2 2.96889 1.59738   1
  -3   9  -2 1.75053 2.13451   4
   3  -9   2 -3.3307 1.69152   2
   3  -9   2 1.67628 2.34524   3
  -4   9  -2 80.2649 3.24431   1
  -4   9  -2 76.1331 4.91170   4
   4  -9   2 92.5541 4.28667   2
   4  -9   2 94.3531 5.51799   3
  -5   9  -2 3.24807 1.61476   1
  -5   9  -2 1.93370 2.75186   4
   5  -9   2 5.68109 2.80092   3
   5  -9   2 5.12821 2.10400   2
  -6   9  -2 4.34139 3.15101   4
  -6   9  -2 1.86279 1.87425   1
   6  -9   2 1.04928 2.86464   3
   6  -9   2 2.52911 2.77739   2
  -7   9  -2 3.93424 3.48123   4
  -7   9  -2 0.61912 2.50932   1
   7  -9   2 2.60562 2.91384   3
  -8   9  -2 10.0741 4.03680   4
   8  -9   2 6.99591 4.85781   2
   8  -9   2 4.08161 3.54326   3
  -9   9  -2 4.07488 4.17531   4
   9  -9   2 -1.6340 3.60348   3
   9  -9   2 0.41194 3.37595   2
 -10   9  -2 -6.2557 4.27337   4
  10  -9   2 4.94070 3.78712   3
 -11   9  -2 7.73328 8.17824   4
  11  -9   2 4.70612 5.18191   3
 -12   9  -2 -1.8674 5.32230   4
  12  -9   2 -1.6348 4.92610   3
   7   8  -2 2.50726 4.15624   4
  -7  -8   2 -1.9979 5.80402   2
   6   8  -2 1.68852 3.57818   4
  -6  -8   2 -8.3450 4.70607   2
  -6  -8   2 -0.6655 7.17733   1
   5   8  -2 4.70634 3.18114   4
  -5  -8   2 -0.1630 3.87066   2
  -5  -8   2 -2.2278 5.90216   1
   4   8  -2 -0.1265 2.65708   4
  -4  -8   2 1.03590 3.06009   2
  -4  -8   2 -1.3097 5.03402   1
   3   8  -2 2.30207 2.39089   4
  -3  -8   2 1.42437 2.57484   2
  -3  -8   2 -2.9033 4.12562   1
   2   8  -2 14.3238 4.28734   1
   2   8  -2 11.6707 2.34926   4
  -2  -8   2 9.52356 2.73348   2
   1   8  -2 12.8611 3.05824   1
   1   8  -2 13.3661 2.34055   4
  -1  -8   2 16.8687 1.82141   3
  -1  -8   2 11.2629 2.66443   2
   0   8  -2 10.0260 2.38016   4
   0   8  -2 7.48862 2.39787   1
   0  -8   2 8.94297 1.77310   3
  -1   8  -2 1.30666 2.13644   4
  -1   8  -2 0.46232 1.83253   1
   1  -8   2 -3.8133 1.64231   2
   1  -8   2 -0.6021 1.74095   3
  -2   8  -2 -0.1922 1.65394   4
  -2   8  -2 1.72523 1.47375   1
   2  -8   2 3.67691 1.86801   3
  -3   8  -2 6.03269 1.50803   1
  -3   8  -2 6.50231 2.29374   4
   3  -8   2 4.10807 1.63725   2
   3  -8   2 5.21252 2.05988   3
  -4   8  -2 61.8842 3.09882   1
  -4   8  -2 67.4963 4.30876   4
  -4   8  -2 64.1071 2.73874   1
   4  -8   2 74.1252 4.72098   3
   4  -8   2 73.3858 3.33144   2
  -5   8  -2 9.36303 1.78731   1
  -5   8  -2 4.98513 5.33882   4
   5  -8   2 8.20144 2.53470   3
   5  -8   2 8.98669 1.86961   2
   5  -8   2 7.17599 1.63095   1
  -6   8  -2 -0.7316 2.88249   4
  -6   8  -2 0.60570 1.93754   1
   6  -8   2 2.33689 2.62826   3
   6  -8   2 0.51233 1.73651   2
  -7   8  -2 1.74862 3.21510   4
  -7   8  -2 -1.8962 2.56637   1
   7  -8   2 3.35956 2.75228   3
   7  -8   2 1.92781 1.98025   2
  -8   8  -2 -2.8056 3.03053   4
   8  -8   2 1.39777 2.37708   2
   8  -8   2 2.22444 3.51523   3
  -9   8  -2 8.72228 4.40135   1
  -9   8  -2 -3.9060 3.81106   4
   9  -8   2 -1.0511 2.53861   2
   9  -8   2 -2.9881 3.25330   3
 -10   8  -2 -0.6141 5.02326   4
  10  -8   2 5.07878 3.96843   3
 -11   8  -2 -2.3870 5.45762   4
  11  -8   2 -0.7289 4.46865   3
 -12   8  -2 -1.6277 5.91246   4
  12  -8   2 -1.0880 5.75631   3
   7   7  -2 -7.9729 3.44885   4
  -7  -7   2 4.66757 5.33121   2
  -7  -7   2 -4.7170 6.61501   1
   6   7  -2 -2.5986 2.79869   4
  -6  -7   2 0.49227 6.26377   1
  -6  -7   2 -0.4943 4.14894   2
   5   7  -2 2.34321 2.91599   4
  -5  -7   2 5.39127 3.28230   2
  -5  -7   2 -3.7643 4.89583   1
   4   7  -2 0.44414 2.18214   4
  -4  -7   2 -3.9857 4.02637   1
  -4  -7   2 2.26794 2.68082   2
   3   7  -2 0.71109 2.01766   4
  -3  -7   2 1.17753 2.49884   2
   2   7  -2 15.9936 2.45898   4
  -2  -7   2 12.8614 2.59419   2
   1   7  -2 37.6306 3.26486   1
   1   7  -2 35.5057 2.68281   4
  -1  -7   2 30.3147 1.89926   3
  -1  -7   2 32.5715 2.95276   2
   0   7  -2 33.4173 2.70347   1
   0   7  -2 32.1254 2.21155   4
   0  -7   2 28.4752 2.22770   2
   0  -7   2 31.8975 2.24303   3
  -1   7  -2 29.2707 2.27625   4
  -1   7  -2 27.2684 2.36163   1
   1  -7   2 25.4298 1.97686   2
   1  -7   2 24.9701 2.36111   3
  -2   7  -2 0.54732 1.24249   4
  -2   7  -2 1.54977 1.22145   1
   2  -7   2 0.31218 1.57313   3
   2  -7   2 0.85494 1.07626   2
  -3   7  -2 95.1016 3.34998   1
  -3   7  -2 94.9816 4.28756   4
  -3   7  -2 91.0465 4.07021   1
   3  -7   2 102.251 4.56428   3
   3  -7   2 92.5039 3.75514   2
  -4   7  -2 79.5035 4.04107   4
  -4   7  -2 69.3251 2.83032   1
   4  -7   2 77.8277 3.19426   2
   4  -7   2 77.0042 4.00997   3
   4  -7   2 65.2864 2.82997   1
  -5   7  -2 56.2511 4.06089   4
  -5   7  -2 54.4668 2.85675   1
   5  -7   2 55.4189 2.78964   2
   5  -7   2 49.0260 6.02898   3
  -6   7  -2 13.4545 3.24199   4
  -6   7  -2 15.8218 2.33354   1
   6  -7   2 19.6978 2.24812   2
   6  -7   2 13.7953 3.11339   3
  -7   7  -2 -2.9371 2.68131   4
  -7   7  -2 0.57384 2.48340   1
   7  -7   2 3.67043 2.65367   3
   7  -7   2 3.24038 1.79791   2
  -8   7  -2 2.40515 3.42839   1
  -8   7  -2 -0.1971 3.15845   4
   8  -7   2 1.79315 1.99541   2
   8  -7   2 -0.3597 2.93898   3
  -9   7  -2 4.88357 3.85773   4
  -9   7  -2 6.56430 4.28384   1
   9  -7   2 5.52946 2.54450   2
   9  -7   2 3.42727 3.34727   3
 -10   7  -2 2.15445 4.60387   4
 -10   7  -2 -1.7225 6.82846   1
  10  -7   2 -1.8646 3.91109   3
 -11   7  -2 -1.6049 5.03750   4
 -11   7  -2 1.98800 7.00848   1
  11  -7   2 5.94639 4.43746   3
 -12   7  -2 1.60831 8.67890   1
 -12   7  -2 -14.773 5.60297   4
  12  -7   2 -3.5641 9.71329   3
   8   6  -2 5.02019 4.01464   4
  -8  -6   2 10.2533 5.92877   2
  -8  -6   2 -13.042 6.68059   1
   7   6  -2 4.95973 3.40476   4
  -7  -6   2 -1.5363 5.83610   1
  -7  -6   2 10.9013 4.73624   2
   6   6  -2 3.64651 2.77254   4
  -6  -6   2 -1.8224 3.66705   2
  -6  -6   2 2.65563 5.52144   1
   5   6  -2 8.81676 2.69571   4
  -5  -6   2 7.95476 3.34589   2
  -5  -6   2 2.14442 3.92620   1
   4   6  -2 -1.6400 1.87396   4
  -4  -6   2 -0.3186 2.25741   2
  -4  -6   2 1.86087 3.59705   1
   3   6  -2 26.5388 4.01095   4
  -3  -6   2 19.6883 3.96984   1
  -3  -6   2 22.2320 3.23521   2
   2   6  -2 67.5137 3.12469   4
  -2  -6   2 60.2514 4.30126   2
  -2  -6   2 68.1754 4.37225   1
   1   6  -2 96.2647 3.73225   4
   1   6  -2 96.7737 4.53226   1
  -1  -6   2 92.1547 3.10139   3
  -1  -6   2 99.6443 4.14898   2
  -1  -6   2 90.3494 3.54386   3
   0   6  -2 57.9228 2.76434   4
   0   6  -2 66.3921 3.28803   1
   0  -6   2 63.4892 2.70619   3
   0  -6   2 61.0868 2.91736   2
  -1   6  -2 12.8979 1.59470   1
  -1   6  -2 12.9793 1.74026   4
   1  -6   2 12.8959 1.70746   3
   1  -6   2 13.5345 1.60744   2
  -2   6  -2 100.342 3.47141   1
  -2   6  -2 96.5779 4.04348   4
   2  -6   2 101.621 3.80431   2
   2  -6   2 100.208 4.25530   3
  -3   6  -2 108.470 4.37072   4
  -3   6  -2 109.116 3.55629   1
   3  -6   2 100.755 3.62161   1
   3  -6   2 111.776 3.90676   2
   3  -6   2 112.395 4.57799   3
  -4   6  -2 158.020 5.00110   1
  -4   6  -2 161.539 6.09597   4
   4  -6   2 160.475 5.18682   2
   4  -6   2 162.362 6.10992   3
  -5   6  -2 125.928 5.34971   4
  -5   6  -2 122.629 4.43605   1
   5  -6   2 123.093 4.27873   2
   5  -6   2 114.202 5.14156   3
  -6   6  -2 22.7253 2.79268   1
  -6   6  -2 21.3399 3.46617   4
   6  -6   2 16.1934 2.88770   3
   6  -6   2 17.5457 2.05510   2
  -7   6  -2 -2.6006 2.36627   1
  -7   6  -2 1.76559 2.86156   4
   7  -6   2 -0.7406 2.34012   3
   7  -6   2 0.18162 1.67075   2
  -8   6  -2 4.90779 3.67797   4
  -8   6  -2 4.90955 3.48951   1
   8  -6   2 4.62014 2.02055   2
   8  -6   2 0.76967 2.58651   3
  -9   6  -2 10.0372 4.90596   1
  -9   6  -2 20.2250 4.54333   4
   9  -6   2 7.78866 3.28284   3
   9  -6   2 12.2098 2.64748   2
 -10   6  -2 2.76504 4.01140   4
 -10   6  -2 7.80953 5.89647   1
  10  -6   2 4.03082 3.84790   3
 -11   6  -2 -5.0822 5.17954   4
 -11   6  -2 2.58065 7.00857   1
  11  -6   2 -1.5723 4.69135   3
 -12   6  -2 12.3624 8.88563   1
 -12   6  -2 -8.1736 5.82384   4
  12  -6   2 -2.7218 5.24565   3
   9   5  -2 2.02269 6.25001   4
  -9  -5   2 0.55584 6.37686   2
  -9  -5   2 -6.0442 6.36923   1
   8   5  -2 8.68578 3.56027   4
  -8  -5   2 1.21561 6.04373   1
  -8  -5   2 -0.0214 4.68462   2
   7   5  -2 3.38366 2.97968   4
  -7  -5   2 -5.0543 4.78922   1
  -7  -5   2 -3.9487 3.59384   2
   6   5  -2 19.6586 3.21965   4
  -6  -5   2 17.8222 4.31799   2
  -6  -5   2 13.7519 4.78150   1
   5   5  -2 12.1121 2.37586   4
  -5  -5   2 3.40661 3.44334   1
  -5  -5   2 5.31215 2.94588   2
   4   5  -2 1.21348 1.58010   4
  -4  -5   2 0.27909 1.96657   2
  -4  -5   2 -2.2233 2.93825   1
   3   5  -2 34.9572 2.29588   4
  -3  -5   2 30.2095 3.27534   1
  -3  -5   2 34.5032 2.57086   2
   2   5  -2 158.540 5.27638   4
  -2  -5   2 164.962 6.30042   1
  -2  -5   2 156.123 5.74504   2
   1   5  -2 39.2836 1.91047   4
   1   5  -2 36.2254 2.64983   1
  -1  -5   2 39.7915 2.26344   2
  -1  -5   2 34.6822 2.03422   3
  -1  -5   2 37.1165 1.61411   3
   0   5  -2 285.790 8.28279   4
   0   5  -2 283.814 8.54153   1
   0  -5   2 284.485 8.41848   2
   0  -5   2 282.791 7.98192   3
  -1   5  -2 44.2770 2.18688   1
  -1   5  -2 42.1273 2.19305   4
   1  -5   2 44.2777 2.31108   3
   1  -5   2 46.9590 2.17795   2
  -2   5  -2 13.8345 1.17870   1
  -2   5  -2 10.3439 1.42708   4
   2  -5   2 10.0424 1.17784   2
   2  -5   2 10.3775 1.54843   3
   2  -5   2 10.7314 1.32823   1
  -3   5  -2 83.1994 3.60747   4
  -3   5  -2 77.2870 2.80570   1
   3  -5   2 78.1042 2.92257   2
   3  -5   2 75.9620 2.71430   1
   3  -5   2 80.6998 3.63758   3
  -4   5  -2 178.201 5.45513   1
  -4   5  -2 170.943 6.26026   4
   4  -5   2 178.621 5.34408   2
   4  -5   2 170.203 6.28645   3
  -5   5  -2 155.566 6.12465   4
  -5   5  -2 153.202 5.45650   1
   5  -5   2 162.387 6.15631   3
   5  -5   2 159.548 5.02405   2
  -6   5  -2 3.92498 2.10137   4
  -6   5  -2 0.46297 1.86531   1
   6  -5   2 -0.5242 1.20052   2
   6  -5   2 1.43758 1.66319   3
  -7   5  -2 0.58454 3.13649   4
  -7   5  -2 1.22918 2.43475   1
   7  -5   2 -1.9473 1.46241   2
   7  -5   2 -1.0954 2.08812   3
  -8   5  -2 4.35888 3.13691   4
  -8   5  -2 -0.5372 3.33054   1
   8  -5   2 6.02099 2.79859   3
   8  -5   2 1.16138 1.92371   2
  -9   5  -2 5.65384 5.13853   1
  -9   5  -2 2.86939 3.50746   4
   9  -5   2 6.02440 2.53973   2
   9  -5   2 5.65535 3.14290   3
 -10   5  -2 -6.2861 3.90725   4
 -10   5  -2 1.85002 5.56374   1
  10  -5   2 8.17403 4.12018   3
 -11   5  -2 0.53782 5.10561   4
 -11   5  -2 -6.6901 6.87484   1
  11  -5   2 4.61983 4.93008   3
 -12   5  -2 1.23731 5.33267   4
 -12   5  -2 15.8895 8.51566   1
  12  -5   2 -12.178 5.17336   3
   9   4  -2 -0.5409 3.78732   4
  -9  -4   2 8.13847 8.80639   1
  -9  -4   2 0.84811 5.70955   2
   8   4  -2 -3.5508 3.13694   4
  -8  -4   2 -2.7562 5.00020   1
  -8  -4   2 3.10370 4.64571   2
   7   4  -2 -0.6723 2.66138   4
  -7  -4   2 3.95830 3.81647   1
  -7  -4   2 2.96196 3.67031   2
   6   4  -2 32.1814 3.35471   4
  -6  -4   2 39.2651 5.35339   1
  -6  -4   2 35.3256 4.12183   2
   5   4  -2 27.9910 2.68931   4
  -5  -4   2 23.2630 3.42525   2
   4   4  -2 7.31690 1.50026   4
  -4  -4   2 5.20638 1.78198   2
  -4  -4   2 5.25493 1.86168   1
   3   4  -2 32.7686 1.98175   4
  -3  -4   2 31.9585 2.81673   1
  -3  -4   2 31.8393 2.24925   2
   2   4  -2 360.814 10.2092   4
  -2  -4   2 367.085 11.1567   1
  -2  -4   2 372.820 10.7620   2
   1   4  -2 169.969 5.19981   4
   1   4  -2 170.836 5.91237   1
  -1  -4   2 173.201 4.98470   3
  -1  -4   2 172.432 4.73316   3
  -1  -4   2 174.122 5.59608   2
   0   4  -2 1069.89 27.5027   1
   0   4  -2 1109.37 27.2648   4
   0  -4   2 1064.44 26.9926   3
   0  -4   2 1083.22 27.3754   2
   0  -4   2 981.428 27.0725   3
  -1   4  -2 155.210 4.81392   4
  -1   4  -2 152.044 4.57174   1
   1  -4   2 151.109 4.79203   3
   1  -4   2 138.183 4.61648   1
   1  -4   2 153.917 4.63146   2
  -2   4  -2 4.84561 1.01528   4
  -2   4  -2 7.52607 1.00330   1
   2  -4   2 6.56087 0.90775   1
   2  -4   2 6.72905 0.87567   2
   2  -4   2 5.13137 1.11038   3
  -3   4  -2 254.344 7.90728   4
  -3   4  -2 255.386 7.20833   1
   3  -4   2 266.963 7.46833   1
   3  -4   2 252.177 7.95812   3
   3  -4   2 251.547 7.07704   2
  -4   4  -2 248.543 7.40746   1
  -4   4  -2 249.344 8.05552   4
   4  -4   2 245.381 6.91904   2
   4  -4   2 249.183 8.02057   3
  -5   4  -2 180.179 6.19481   1
  -5   4  -2 185.747 6.72211   4
   5  -4   2 180.170 6.48476   3
   5  -4   2 186.613 5.49752   2
  -6   4  -2 3.55348 1.92033   1
  -6   4  -2 2.94307 1.95137   4
   6  -4   2 6.79938 1.69535   3
   6  -4   2 4.91681 1.36235   2
  -7   4  -2 7.60986 3.09809   4
  -7   4  -2 12.8532 3.08911   1
   7  -4   2 9.56372 2.39170   3
   7  -4   2 5.84609 1.70423   2
  -8   4  -2 3.12847 3.02013   4
  -8   4  -2 3.16068 3.62004   1
   8  -4   2 2.13992 2.14730   2
  -9   4  -2 1.83406 3.40145   4
  -9   4  -2 3.02277 4.46790   1
   9  -4   2 4.94185 2.69181   2
   9  -4   2 5.70816 3.51884   3
 -10   4  -2 4.68422 5.21897   1
 -10   4  -2 6.96206 4.48812   4
  10  -4   2 -0.3526 3.84937   3
 -11   4  -2 10.2497 5.06130   4
 -11   4  -2 1.89148 6.38700   1
  11  -4   2 4.52549 4.50339   3
 -12   4  -2 16.7467 8.64254   1
  12  -4   2 -12.313 5.36926   3
  12  -4   2 -0.9759 5.42764   4
  10   3  -2 -0.9395 4.56857   4
 -10  -3   2 4.20892 6.25080   2
 -10  -3   2 0.23355 6.18621   1
   9   3  -2 1.32388 3.28914   4
  -9  -3   2 -0.8906 5.26027   1
  -9  -3   2 6.16943 4.88692   2
   8   3  -2 0.27030 2.94664   4
  -8  -3   2 7.19042 4.78706   1
  -8  -3   2 0.68810 4.21156   2
   7   3  -2 16.7256 2.96242   4
  -7  -3   2 19.2409 4.61201   1
  -7  -3   2 19.1427 3.62902   2
   6   3  -2 53.3858 3.61335   4
  -6  -3   2 65.5657 5.34632   1
  -6  -3   2 53.5220 4.36180   2
   5   3  -2 82.5464 3.80151   4
  -5  -3   2 77.2234 4.18879   2
  -5  -3   2 78.3646 5.18394   1
   4   3  -2 23.9909 1.88102   4
  -4  -3   2 22.2931 2.29975   2
  -4  -3   2 22.6527 2.82961   1
   3   3  -2 26.1552 1.67650   4
  -3  -3   2 30.1226 2.08418   2
  -3  -3   2 32.1455 2.46552   1
   2   3  -2 140.588 4.40403   4
   2   3  -2 141.526 3.85188   3
  -2  -3   2 140.438 3.78505   3
  -2  -3   2 148.247 5.28714   1
  -2  -3   2 144.323 4.88340   2
   1   3  -2 385.655 10.2422   3
   1   3  -2 392.277 11.1508   1
   1   3  -2 399.387 10.4896   4
  -1  -3   2 397.086 10.8484   2
   0   3  -2 1027.00 25.5307   1
   0   3  -2 929.575 25.1857   3
   0   3  -2 1004.16 25.2311   4
   0  -3   2 998.832 25.3360   2
   0  -3   2 995.756 25.1021   3
  -1   3  -2 239.622 6.87747   2
  -1   3  -2 263.259 6.97610   1
  -1   3  -2 263.323 7.24022   4
   1  -3   2 239.394 6.97057   1
   1  -3   2 263.421 6.95297   2
   1  -3   2 255.048 7.20681   3
  -2   3  -2 8.37206 0.93009   1
  -2   3  -2 8.36299 0.87496   2
  -2   3  -2 9.90038 1.18720   4
   2  -3   2 7.96972 0.89596   1
   2  -3   2 8.40491 0.73907   2
   2  -3   2 10.5588 1.29085   3
  -3   3  -2 170.977 5.25378   1
  -3   3  -2 169.645 4.96037   2
  -3   3  -2 173.406 5.73723   4
   3  -3   2 172.229 5.63709   3
   3  -3   2 172.976 4.78193   2
  -4   3  -2 411.868 12.1374   4
  -4   3  -2 422.598 11.7114   1
   4  -3   2 404.418 11.8982   3
   4  -3   2 413.606 11.0263   2
   4  -3   2 415.280 10.8713   2
  -5   3  -2 139.933 5.50704   4
  -5   3  -2 145.773 5.32644   1
   5  -3   2 144.009 5.24600   3
   5  -3   2 141.000 4.35018   2
   5  -3   2 123.149 4.38792   2
  -6   3  -2 28.8850 2.94144   1
  -6   3  -2 24.7520 2.75827   4
   6  -3   2 32.4066 2.74569   3
   6  -3   2 25.6634 2.07572   2
  -7   3  -2 3.76965 2.82406   4
  -7   3  -2 7.18090 2.79646   1
   7  -3   2 5.95635 1.84222   2
   7  -3   2 8.97111 2.03249   3
  -8   3  -2 4.45761 3.16178   4
  -8   3  -2 5.19748 3.81654   1
   8  -3   2 -1.1407 2.06048   2
   8  -3   2 0.01910 2.71948   3
  -9   3  -2 7.90115 4.45421   1
  -9   3  -2 6.71809 3.96837   4
   9  -3   2 5.00173 3.37651   3
   9  -3   2 -0.0899 2.84167   2
 -10   3  -2 6.66135 3.87556   4
 -10   3  -2 7.52703 5.54755   1
  10  -3   2 -1.4431 3.65332   3
 -11   3  -2 -5.1228 6.48347   1
  11  -3   2 -4.7281 4.30602   4
  11  -3   2 -7.3658 4.45694   3
 -12   3  -2 6.19334 9.51003   1
  12  -3   2 0.11465 5.27278   4
  12  -3   2 -5.3887 5.75699   3
  11   2  -2 3.27184 6.06744   4
 -11  -2   2 -2.1032 7.20152   2
  10   2  -2 -3.2451 4.24716   4
 -10  -2   2 1.32656 6.23730   2
 -10  -2   2 -4.4490 5.41876   1
   9   2  -2 3.43700 3.16900   4
  -9  -2   2 13.2293 5.42061   1
  -9  -2   2 0.26177 4.35742   2
   8   2  -2 5.34530 3.08128   4
  -8  -2   2 2.61436 3.59372   2
  -8  -2   2 11.5380 4.33566   1
   7   2  -2 29.3518 2.51466   3
   7   2  -2 38.6704 5.72657   4
  -7  -2   2 36.4955 4.98579   1
  -7  -2   2 31.8836 4.17974   2
   6   2  -2 75.3281 3.30122   3
   6   2  -2 80.4314 3.14312   3
   6   2  -2 79.8005 3.83581   4
  -6  -2   2 78.7854 4.47809   2
  -6  -2   2 82.3500 5.35074   1
   5   2  -2 113.593 4.32145   4
   5   2  -2 101.974 3.32001   3
   5   2  -2 101.416 3.51041   3
  -5  -2   2 102.404 4.59664   2
  -5  -2   2 100.253 4.89155   1
   4   2  -2 94.6974 3.67708   4
   4   2  -2 94.7129 2.88202   3
  -4  -2   2 98.3054 4.13066   2
  -4  -2   2 96.1873 4.50609   1
   3   2  -2 0.18401 0.78014   4
   3   2  -2 1.50336 0.45389   3
  -3  -2   2 -0.2198 0.62676   3
  -3  -2   2 -0.3370 0.91187   2
  -3  -2   2 0.42165 1.29306   1
   2   2  -2 433.468 11.0729   3
   2   2  -2 435.085 11.5338   4
  -2  -2   2 439.469 12.3551   1
  -2  -2   2 435.928 12.0310   2
  -2  -2   2 446.877 11.1747   3
   1   2  -2 3610.53 91.2911   3
   1   2  -2 3740.83 92.2173   4
   1   2  -2 3721.40 91.5872   1
  -1  -2   2 3734.24 91.2872   2
  -1  -2   2 3446.30 90.8479   4
  -1  -2   2 3723.17 91.5884   3
   0   2  -2 3957.67 95.5946   1
   0   2  -2 3923.88 94.6731   4
   0   2  -2 3657.87 93.8724   3
   0   2  -2 3689.26 93.8946   2
   0  -2   2 3808.42 94.5980   3
   0  -2   2 3761.47 94.3026   4
   0  -2   2 3592.73 94.0837   1
   0  -2   2 3881.66 95.1737   2
  -1   2  -2 20.6602 1.20605   4
  -1   2  -2 21.1138 0.87106   2
  -1   2  -2 19.2305 1.22065   3
  -1   2  -2 21.2255 1.13281   1
   1  -2   2 20.6556 1.04531   1
   1  -2   2 21.0756 1.19744   3
   1  -2   2 20.3679 1.14405   4
   1  -2   2 15.7122 1.28338   2
  -2   2  -2 0.63985 0.63380   1
  -2   2  -2 -0.1879 0.39755   2
  -2   2  -2 0.78711 0.76737   4
   2  -2   2 -0.0083 0.57355   1
   2  -2   2 0.99856 0.67296   3
   2  -2   2 1.60936 0.35112   2
  -3   2  -2 275.309 8.58221   4
  -3   2  -2 294.527 8.39280   1
   3  -2   2 289.764 7.55465   2
   3  -2   2 299.210 8.47872   3
   3  -2   2 297.486 7.64382   2
  -4   2  -2 479.660 13.5992   1
  -4   2  -2 478.712 13.7968   4
   4  -2   2 484.554 12.5424   2
   4  -2   2 490.874 13.4841   3
  -5   2  -2 258.422 7.32935   2
  -5   2  -2 267.777 8.59489   1
   5  -2   2 251.308 7.22715   2
   5  -2   2 267.070 8.17547   3
  -6   2  -2 64.6940 3.80981   4
  -6   2  -2 61.8941 2.85039   2
  -6   2  -2 66.1701 3.89958   1
   6  -2   2 65.5599 3.47460   3
  -7   2  -2 5.68752 1.92682   2
  -7   2  -2 1.18617 2.68368   4
  -7   2  -2 10.5952 3.53134   1
   7  -2   2 3.12534 1.89656   3
  -8   2  -2 -0.7277 3.26699   1
  -8   2  -2 1.59603 2.74342   4
  -8   2  -2 2.28584 2.34763   2
   8  -2   2 0.45289 2.63955   3
  -9   2  -2 -0.5408 4.12047   1
  -9   2  -2 5.27106 3.04163   2
   9  -2   2 4.85613 3.50070   4
 -10   2  -2 8.81562 4.90741   1
  10  -2   2 -2.5618 3.63083   3
  10  -2   2 -1.5450 4.30224   4
 -11   2  -2 3.08831 5.92620   1
  11  -2   2 -7.6865 4.21283   3
  11  -2   2 -3.2453 4.75843   4
  11   1  -2 2.99470 4.76228   4
 -11  -1   2 -14.712 6.31566   2
 -11  -1   2 1.95147 5.89315   1
  10   1  -2 1.31522 3.86959   4
 -10  -1   2 -0.3312 5.16649   2
 -10  -1   2 5.75374 5.16396   1
   9   1  -2 0.18231 3.30873   4
  -9  -1   2 1.22516 4.50182   1
  -9  -1   2 2.97378 4.00790   2
   8   1  -2 2.91252 2.70254   4
   8   1  -2 2.33709 2.23488   3
  -8  -1   2 6.92654 3.66606   1
  -8  -1   2 6.12174 3.70562   2
   7   1  -2 29.2779 3.21254   4
   7   1  -2 37.7892 2.94941   3
  -7  -1   2 35.0989 4.76289   2
  -7  -1   2 35.4961 4.41311   1
   6   1  -2 66.9814 3.42837   4
   6   1  -2 66.7976 3.20103   3
  -6  -1   2 66.7379 3.80450   2
   5   1  -2 266.056 8.13719   4
  -5  -1   2 259.952 7.63741   3
  -5  -1   2 268.421 8.98183   1
  -5  -1   2 256.029 8.45311   2
   4   1  -2 74.8600 2.79501   3
   4   1  -2 81.2968 3.15697   4
  -4  -1   2 80.1769 2.92963   3
  -4  -1   2 77.1576 3.76720   1
  -4  -1   2 79.6333 3.49050   2
   3   1  -2 123.841 3.64367   3
   3   1  -2 127.987 3.99310   4
  -3  -1   2 119.446 4.33047   2
  -3  -1   2 123.054 4.61240   1
  -3  -1   2 126.096 3.81562   3
   2   1  -2 1249.38 31.7934   3
   2   1  -2 1286.76 31.9931   4
  -2  -1   2 1270.76 32.0974   4
  -2  -1   2 1314.05 32.7482   1
  -2  -1   2 1244.01 31.9251   3
  -2  -1   2 1279.10 32.5124   2
   1   1  -2 2389.09 58.3189   4
   1   1  -2 2336.48 58.4421   1
   1   1  -2 2292.98 57.9725   3
  -1  -1   2 2358.80 58.3691   4
  -1  -1   2 2312.71 58.2705   2
  -1  -1   2 2417.04 58.6095   3
  -1  -1   2 2216.75 58.4140   1
   0   1  -2 284.216 7.48653   1
   0   1  -2 265.743 7.32358   3
   0   1  -2 283.347 7.29750   4
   0   1  -2 281.209 7.34555   2
   0  -1   2 285.655 7.25693   4
   0  -1   2 278.382 7.34191   3
   0  -1   2 280.733 7.37738   2
   0  -1   2 269.227 7.46496   1
  -1   1  -2 348.078 9.12301   4
  -1   1  -2 337.421 9.00573   1
  -1   1  -2 326.347 9.00820   3
  -1   1  -2 336.240 8.52551   2
   1  -1   2 336.143 8.97937   1
   1  -1   2 348.130 8.57501   2
   1  -1   2 342.237 8.98892   3
   1  -1   2 341.371 9.09470   4
  -2   1  -2 59.8911 2.51402   4
  -2   1  -2 61.9994 2.42655   1
   2  -1   2 60.9429 2.28557   3
  -3   1  -2 455.255 12.6400   4
  -3   1  -2 449.766 11.5192   2
  -3   1  -2 455.470 12.5745   1
   3  -1   2 447.181 12.1965   3
   3  -1   2 448.795 11.4362   2
  -4   1  -2 296.417 7.93483   2
  -4   1  -2 300.153 9.08770   4
  -4   1  -2 283.429 9.00990   1
   4  -1   2 297.247 8.51944   3
   4  -1   2 282.565 7.74326   2
  -5   1  -2 222.866 7.88374   1
  -5   1  -2 229.416 6.68146   2
  -5   1  -2 224.675 7.73799   4
   5  -1   2 223.931 6.69645   2
   5  -1   2 230.714 7.09912   3
  -6   1  -2 67.2880 4.12168   1
  -6   1  -2 52.8177 3.98614   4
  -6   1  -2 68.4405 3.16415   2
   6  -1   2 72.6829 3.44545   3
  -7   1  -2 6.63410 2.17250   2
  -7   1  -2 4.44176 3.56045   1
   7  -1   2 8.46506 2.01313   3
   7  -1   2 7.57593 2.68889   4
  -8   1  -2 1.99897 2.65687   2
  -8   1  -2 1.14595 3.34623   1
   8  -1   2 2.62113 2.16470   3
   8  -1   2 -0.9328 3.16886   4
  -9   1  -2 2.15359 4.25211   1
  -9   1  -2 3.07425 3.43385   2
   9  -1   2 3.48965 3.10371   3
   9  -1   2 2.31862 3.51830   4
 -10   1  -2 2.32017 5.34601   1
  10  -1   2 5.15470 3.72134   3
  10  -1   2 -3.8907 4.00665   4
  11  -1   2 -0.3152 4.86369   4
  11   0  -2 3.52822 4.20150   4
 -11   0   2 -2.0364 5.96078   1
 -11   0   2 3.57507 5.94622   2
  10   0  -2 -1.7518 3.80202   4
 -10   0   2 -7.9047 4.28475   2
 -10   0   2 7.06776 5.45924   1
   9   0  -2 4.00357 2.76320   3
   9   0  -2 3.69029 3.19445   4
  -9   0   2 5.43199 4.23119   1
  -9   0   2 -1.6228 3.83443   2
   8   0  -2 -1.5076 4.21144   4
   8   0  -2 3.08815 2.39082   3
  -8   0   2 6.69690 3.38008   2
  -8   0   2 2.51926 3.37805   1
   7   0  -2 42.7946 3.22592   3
   7   0  -2 38.9306 3.03021   4
  -7   0   2 36.6085 3.44599   2
  -7   0   2 31.4406 4.24783   1
   6   0  -2 101.881 4.48837   4
  -6   0   2 100.310 4.78334   2
  -6   0   2 106.342 5.08143   1
  -6   0   2 102.629 4.27451   3
   5   0  -2 934.601 24.3682   4
  -5   0   2 924.409 24.6288   2
  -5   0   2 909.951 24.0067   3
  -5   0   2 896.927 24.9203   1
   4   0  -2 99.4624 3.70796   4
  -4   0   2 101.016 3.95244   2
  -4   0   2 103.017 3.63908   3
  -4   0   2 96.8297 4.14410   1
   3   0  -2 4.18026 0.87286   4
   3   0  -2 4.38532 0.95759   4
   3   0  -2 3.18586 0.73621   3
  -3   0   2 2.99127 0.91536   2
  -3   0   2 2.31825 0.78412   3
  -3   0   2 1.35464 0.99260   1
   2   0  -2 23.3584 1.12967   3
   2   0  -2 22.3928 1.48122   1
   2   0  -2 25.4257 1.11097   4
   2   0  -2 22.8991 1.06275   4
   2   0  -2 20.4552 1.41288   2
   2   0  -2 20.8458 1.42526   1
  -2   0   2 24.3857 1.19510   3
  -2   0   2 25.0166 1.52563   2
   1   0  -2 1679.79 40.8728   1
   1   0  -2 1653.09 40.8844   2
   1   0  -2 1603.00 40.6055   3
  -1   0   2 1561.35 40.8348   1
  -1   0   2 1649.50 40.9003   2
   0   0  -2 1072.93 30.1124   1
   0   0  -2 1223.20 29.8265   4
   0   0  -2 1167.41 29.8745   3
   0   0  -2 1226.58 29.9072   2
   0   0   2 1215.79 29.8376   4
   0   0   2 1252.45 29.9280   2
   0   0   2 1185.98 29.8973   3
   0   0   2 1208.33 30.0144   1
  -1   0  -2 9999.99 239.744   2
  -1   0  -2 9324.11 242.026   1
  -1   0  -2 9443.76 241.443   3
  -1   0  -2 9783.73 241.613   4
   1   0   2 9813.12 241.527   3
   1   0   2 9771.74 239.878   2
   1   0   2 9260.35 241.854   1
   1   0   2 9993.83 242.002   4
  -2   0  -2 259.506 7.47692   4
  -2   0  -2 254.585 7.55560   1
  -2   0  -2 265.275 6.71455   2
  -2   0  -2 239.779 7.12678   3
   2   0   2 267.973 6.66713   2
   2   0   2 265.112 7.06887   3
  -3   0  -2 19.3594 1.75228   1
  -3   0  -2 21.1005 1.20792   2
  -3   0  -2 21.6757 1.71830   4
   3   0   2 21.9148 1.32872   3
   3   0   2 20.8867 1.02470   2
  -4   0  -2 71.9970 3.56589   1
  -4   0  -2 73.4193 2.78934   2
  -4   0  -2 76.9118 3.52890   4
   4   0   2 76.7528 3.47679   4
   4   0   2 72.5017 2.55509   2
   4   0   2 75.0947 2.89467   3
  -5   0  -2 133.217 4.57143   2
  -5   0  -2 127.839 5.51709   1
   5   0   2 128.275 5.30927   4
   5   0   2 132.722 4.49614   3
  -6   0  -2 64.0528 4.72206   1
  -6   0  -2 61.7634 3.42283   2
   6   0   2 63.5518 3.17349   3
   6   0   2 63.4026 4.36017   4
  -7   0  -2 17.3754 2.79375   2
  -7   0  -2 13.3206 3.83415   1
   7   0   2 12.0193 3.34302   4
   7   0   2 16.3123 2.30828   3
  -8   0  -2 -0.0139 3.32041   1
  -8   0  -2 0.94551 3.03950   2
   8   0   2 -2.4650 2.86668   4
   8   0   2 2.00946 2.26319   3
  -9   0  -2 5.65405 4.74827   1
  -9   0  -2 3.34953 3.81395   2
   9   0   2 0.49850 3.09405   3
   9   0   2 -2.4205 3.36302   4
 -10   0  -2 0.31482 5.33993   1
  10   0   2 4.42827 4.13449   4
 -11   0  -2 0.75730 6.94594   1
  11   0   2 -7.7867 4.74657   4
  12  -1  -2 -3.5476 4.94056   4
 -12   1   2 -0.9554 6.59805   1
 -12   1   2 -2.6971 6.45540   2
  11  -1  -2 6.37248 4.46918   4
 -11   1   2 4.66603 5.56125   2
 -11   1   2 6.42366 5.47268   1
  10  -1  -2 -2.0226 3.88781   3
  10  -1  -2 0.42135 3.97551   4
 -10   1   2 12.0778 5.08144   1
 -10   1   2 0.57906 4.20137   2
   9  -1  -2 3.68044 2.87017   3
   9  -1  -2 3.97234 3.04218   4
  -9   1   2 10.2447 3.67944   2
  -9   1   2 8.80065 4.19132   1
   8  -1  -2 1.74902 2.76473   4
   8  -1  -2 6.21427 2.29765   3
  -8   1   2 6.49821 2.82162   2
   7  -1  -2 41.2028 3.24772   4
  -7   1   2 45.6517 3.97550   1
  -7   1   2 47.1923 3.50420   3
  -7   1   2 50.8163 3.65513   2
  -6   1   2 247.624 8.24298   2
  -6   1   2 242.023 7.85582   3
  -6   1   2 242.478 7.93352   4
  -6   1   2 252.290 8.57697   1
  -5   1   2 857.968 23.3735   2
  -5   1   2 862.984 23.5682   1
  -5   1   2 899.613 23.2321   3
  -5   1   2 868.584 23.0782   4
  -4   1   2 292.119 8.69658   2
  -4   1   2 291.646 8.38635   4
  -4   1   2 293.008 8.57142   3
  -4   1   2 293.213 8.76395   1
   3  -1  -2 21.8772 1.34373   4
  -3   1   2 23.9632 1.34736   4
  -3   1   2 20.3465 1.55712   3
  -3   1   2 22.2917 1.55381   1
  -3   1   2 23.1067 1.60060   2
   2  -1  -2 1656.67 40.7987   4
   2  -1  -2 1659.30 41.1633   1
   2  -1  -2 1563.04 41.2942   2
  -2   1   2 1657.79 40.8421   4
  -2   1   2 1664.31 41.3792   2
  -2   1   2 1620.33 41.1982   1
  -2   1   2 1638.94 41.2352   3
   1  -1  -2 2869.39 72.3018   1
   1  -1  -2 2873.35 71.5759   2
   1  -1  -2 2766.55 71.3913   3
   1  -1  -2 2756.53 71.5962   2
   1  -1  -2 3033.26 71.5791   4
  -1   1   2 2941.64 71.6806   4
  -1   1   2 2939.93 72.1054   3
  -1   1   2 2801.73 71.6693   1
   0  -1  -2 2245.86 55.5928   4
   0  -1  -2 2264.34 55.9382   1
   0  -1  -2 2200.45 55.5402   3
   0   1   2 2292.56 55.7493   3
   0   1   2 2195.13 55.6593   2
   0   1   2 2203.48 55.6537   1
  -1  -1  -2 3633.62 90.5927   1
  -1  -1  -2 3476.16 90.5039   4
  -1  -1  -2 3610.72 91.9391   2
  -1  -1  -2 3636.66 90.1594   3
   1   1   2 3666.29 90.6459   2
   1   1   2 3687.19 90.4361   4
   1   1   2 3711.64 90.3966   3
  -2  -1  -2 3.78965 0.67010   3
  -2  -1  -2 5.88619 1.23281   1
  -2  -1  -2 5.60150 0.74408   2
   2   1   2 4.60117 0.63332   3
   2   1   2 4.86411 1.12525   4
   2   1   2 5.39078 0.70978   2
  -3  -1  -2 17.9467 2.22023   1
  -3  -1  -2 14.3577 1.19467   2
   3   1   2 14.8934 1.07690   3
   3   1   2 15.7884 1.58223   4
  -4  -1  -2 66.1487 3.77120   1
  -4  -1  -2 70.7353 2.86717   2
   4   1   2 68.1882 2.60801   3
   4   1   2 70.1095 3.38381   4
  -5  -1  -2 100.901 4.08817   2
  -5  -1  -2 101.997 5.11403   1
   5   1   2 98.5431 3.58497   3
   5   1   2 101.653 4.58392   4
  -6  -1  -2 48.2521 3.34991   2
  -6  -1  -2 52.5817 5.35231   1
   6   1   2 43.7114 3.95197   4
   6   1   2 48.8843 2.77852   3
  -7  -1  -2 11.0396 3.69198   1
  -7  -1  -2 16.6233 2.99585   2
   7   1   2 5.01592 2.99620   4
   7   1   2 15.1577 2.11102   3
  -8  -1  -2 3.67513 4.03154   1
  -8  -1  -2 2.12164 3.31910   2
   8   1   2 1.17771 2.13496   3
   8   1   2 1.17430 2.89328   4
  -9  -1  -2 5.90163 5.55814   2
  -9  -1  -2 2.78993 4.85290   1
   9   1   2 5.66331 3.52391   4
 -10  -1  -2 4.63253 8.66997   1
  10   1   2 -0.2954 4.06375   4
  12  -2  -2 -0.3014 5.21600   4
 -12   2   2 12.1903 6.51298   2
 -12   2   2 1.31765 6.91327   1
  11  -2  -2 -2.0567 4.60275   3
  11  -2  -2 10.2321 4.58177   4
 -11   2   2 6.85319 5.61620   2
 -11   2   2 7.64042 5.35512   1
  10  -2  -2 6.62751 3.77090   3
  10  -2  -2 10.5345 4.52557   4
 -10   2   2 18.4055 5.48621   1
 -10   2   2 6.76300 4.19570   2
   9  -2  -2 6.48418 3.31277   4
  -9   2   2 4.49876 3.19339   2
  -9   2   2 12.2607 4.00866   1
  -8   2   2 2.62132 2.75852   2
  -8   2   2 -0.2106 2.96077   1
  -8   2   2 1.22088 2.94073   4
  -8   2   2 0.55091 2.29700   3
  -7   2   2 34.1846 3.21228   2
  -7   2   2 42.9563 3.46857   3
  -7   2   2 38.7190 3.56054   1
  -7   2   2 34.7895 3.11085   4
  -6   2   2 268.494 8.72630   1
  -6   2   2 262.345 8.50996   3
  -6   2   2 264.102 8.57232   2
  -6   2   2 259.564 8.49161   4
  -5   2   2 480.773 13.4554   4
  -5   2   2 480.985 13.6582   2
  -5   2   2 477.747 13.6852   3
  -5   2   2 480.757 13.6218   1
  -4   2   2 634.153 17.1616   3
  -4   2   2 639.790 17.1208   2
  -4   2   2 624.097 16.8543   1
  -4   2   2 627.324 16.8011   4
   3  -2  -2 72.7149 2.62007   1
   3  -2  -2 70.6142 2.66979   1
   3  -2  -2 67.1881 2.53487   4
  -3   2   2 74.5979 2.94770   2
  -3   2   2 72.0869 2.98931   3
  -3   2   2 72.4635 2.63672   4
   2  -2  -2 570.851 14.3184   1
   2  -2  -2 544.279 14.2995   4
   2  -2  -2 566.659 14.9370   2
  -2   2   2 556.084 14.3819   1
  -2   2   2 567.902 14.4115   4
  -2   2   2 560.715 14.9002   3
   1  -2  -2 5.67155 0.92752   2
   1  -2  -2 5.63330 0.80765   3
   1  -2  -2 5.50474 0.63633   1
   1  -2  -2 4.25958 0.50666   4
  -1   2   2 5.13495 0.58969   4
  -1   2   2 5.96032 0.67164   1
  -1   2   2 6.00558 0.85513   3
  -1   2   2 4.03563 0.88839   2
   0  -2  -2 1042.02 26.0195   2
   0  -2  -2 985.698 25.9574   4
   0  -2  -2 1055.91 26.1304   1
   0  -2  -2 1019.14 25.8319   3
   0   2   2 992.438 25.9964   1
   0   2   2 1056.39 25.9355   4
   0   2   2 984.819 26.0440   2
   0   2   2 1065.58 25.9492   3
  -1  -2  -2 730.101 18.4827   2
  -1  -2  -2 696.695 18.2411   3
  -1  -2  -2 698.068 19.0005   1
   1   2   2 748.073 18.7777   4
   1   2   2 729.083 18.3150   3
  -2  -2  -2 93.2239 3.87145   1
  -2  -2  -2 90.9680 2.95747   3
  -2  -2  -2 97.5246 3.18458   2
   2   2   2 94.8310 2.88929   3
   2   2   2 99.7056 3.58651   4
  -3  -2  -2 29.7733 1.81010   3
  -3  -2  -2 31.3653 2.33182   1
  -3  -2  -2 33.8079 1.84168   2
   3   2   2 34.5901 1.49192   3
   3   2   2 33.9882 2.20692   4
  -4  -2  -2 48.0658 2.62600   2
  -4  -2  -2 45.2572 3.12592   1
   4   2   2 53.4696 2.92945   4
   4   2   2 46.0350 1.95131   3
  -5  -2  -2 55.1498 4.74093   1
  -5  -2  -2 61.1301 3.38014   2
   5   2   2 65.4687 2.60224   3
   5   2   2 61.7515 3.87357   4
  -6  -2  -2 30.3837 4.74250   1
  -6  -2  -2 25.8143 3.17700   2
   6   2   2 32.6419 3.57917   4
   6   2   2 32.2412 2.25453   3
  -7  -2  -2 8.24157 2.90116   2
  -7  -2  -2 6.11324 3.84306   1
   7   2   2 4.02817 2.40821   4
  -8  -2  -2 1.23012 4.29419   1
  -8  -2  -2 -6.2264 3.96741   2
   8   2   2 -2.7276 3.04267   4
  -9  -2  -2 -1.1105 5.09276   1
  -9  -2  -2 2.17974 5.14444   2
   9   2   2 -1.4672 3.74735   4
 -10  -2  -2 -6.7836 6.51036   1
  10   2   2 2.61910 4.29632   4
  12  -3  -2 10.7539 5.64105   3
  12  -3  -2 1.89975 5.00355   4
 -12   3   2 6.24302 6.88515   1
 -12   3   2 -6.8648 5.88182   2
  11  -3  -2 8.01049 4.60177   4
  11  -3  -2 8.93894 5.11240   3
 -11   3   2 8.49435 4.85083   2
 -11   3   2 20.6039 5.49619   1
  10  -3  -2 5.16318 4.02993   3
 -10   3   2 11.4835 4.47486   1
 -10   3   2 6.21975 4.67660   2
 -10   3   2 12.2802 3.95581   4
   9  -3  -2 9.13727 3.65115   3
  -9   3   2 5.80938 3.57111   2
  -9   3   2 16.8900 5.87967   1
  -9   3   2 3.37272 3.23824   4
  -8   3   2 -3.2451 2.38937   3
  -8   3   2 0.18068 2.47070   1
  -8   3   2 -0.9781 2.18076   2
  -7   3   2 42.1748 3.30467   1
  -7   3   2 42.2678 3.19102   4
  -7   3   2 39.1371 3.33299   3
  -7   3   2 38.7352 3.10369   2
  -6   3   2 321.531 9.92930   2
  -6   3   2 318.491 10.1519   3
  -6   3   2 314.830 9.89401   4
  -6   3   2 326.228 9.90482   1
  -5   3   2 535.248 14.7713   1
  -5   3   2 545.170 15.0949   2
  -5   3   2 534.908 15.3317   3
  -5   3   2 542.648 15.0055   4
   4  -3  -2 506.851 14.0905   2
   4  -3  -2 483.328 13.4914   1
  -4   3   2 513.123 13.7927   4
  -4   3   2 516.381 14.2474   3
   3  -3  -2 53.4993 2.02926   1
   3  -3  -2 56.4380 2.63791   2
   3  -3  -2 54.1920 1.90109   1
  -3   3   2 54.6285 2.63193   3
  -3   3   2 52.7956 2.27071   4
   2  -3  -2 33.1522 1.19627   1
   2  -3  -2 33.0845 1.83801   2
  -2   3   2 34.0626 1.24918   1
  -2   3   2 31.4535 1.86046   3
  -2   3   2 32.8374 1.50252   4
   1  -3  -2 511.873 13.5803   1
   1  -3  -2 527.244 13.7766   2
  -1   3   2 521.701 13.7915   3
  -1   3   2 522.277 13.4269   4
  -1   3   2 501.777 13.2544   1
   0  -3  -2 438.833 11.9467   3
   0  -3  -2 458.777 12.3602   1
   0  -3  -2 462.642 12.2317   2
   0   3   2 458.355 12.1220   4
   0   3   2 471.155 12.1576   3
  -1  -3  -2 355.470 9.84893   3
  -1  -3  -2 383.272 10.9058   1
  -1  -3  -2 384.307 10.3069   2
   1   3   2 380.213 10.4634   4
   1   3   2 392.295 10.0778   3
  -2  -3  -2 32.6021 1.51631   3
  -2  -3  -2 32.1201 1.91242   2
  -2  -3  -2 36.0997 2.53462   1
   2   3   2 34.4590 1.55263   3
   2   3   2 36.0646 2.02857   4
  -3  -3  -2 0.61936 1.03160   3
  -3  -3  -2 0.02839 1.04450   2
  -3  -3  -2 -0.5215 1.54053   1
   3   3   2 0.26780 0.79312   3
   3   3   2 -0.1558 1.20691   4
  -4  -3  -2 34.6830 2.53254   2
  -4  -3  -2 35.8507 3.36898   1
  -4  -3  -2 30.5720 2.59950   3
   4   3   2 30.6823 1.72770   3
   4   3   2 31.3178 2.50416   4
  -5  -3  -2 43.3559 3.20298   2
   5   3   2 36.7690 2.06198   3
  -6  -3  -2 13.5303 3.90984   1
  -6  -3  -2 22.1312 3.06374   2
   6   3   2 13.8886 1.68943   3
   6   3   2 15.9895 3.07762   4
  -7  -3  -2 5.81522 3.66475   2
  -7  -3  -2 9.77094 4.37621   1
   7   3   2 4.13557 2.81172   4
  -8  -3  -2 2.09587 5.16683   1
  -8  -3  -2 7.85630 4.68151   2
   8   3   2 0.42210 3.20197   4
  -9  -3  -2 9.97956 5.72018   2
   9   3   2 -0.1247 4.85180   4
  12  -4  -2 -4.7869 5.71851   2
  12  -4  -2 7.26159 5.33874   4
  12  -4  -2 9.81068 5.33856   3
 -12   4   2 -3.6266 6.80625   1
  11  -4  -2 8.43144 5.25983   3
  11  -4  -2 12.7020 4.69543   2
 -11   4   2 7.78729 4.79861   4
 -11   4   2 10.4965 5.61922   1
  10  -4  -2 4.44147 4.55923   2
  10  -4  -2 0.96349 3.79168   3
 -10   4   2 8.40336 4.60713   1
 -10   4   2 3.73172 3.89699   4
  -9   4   2 37.2713 4.75656   3
  -9   4   2 45.4383 5.50486   1
  -9   4   2 37.0222 4.80264   4
   8  -4  -2 -2.4322 2.27732   2
  -8   4   2 -0.2965 2.43397   1
  -8   4   2 3.07784 2.70368   3
   7  -4  -2 35.5959 3.19809   2
  -7   4   2 32.8411 3.17074   1
  -7   4   2 35.2757 3.25710   4
  -7   4   2 35.7432 3.16385   3
   6  -4  -2 236.943 8.08517   2
  -6   4   2 245.758 8.37075   3
  -6   4   2 253.006 8.23581   4
  -6   4   2 239.976 7.66554   1
   5  -4  -2 272.533 8.74909   2
  -5   4   2 282.047 8.96424   3
  -5   4   2 278.842 8.58388   4
  -5   4   2 276.602 8.01016   1
   4  -4  -2 18.0894 1.71807   1
   4  -4  -2 19.0690 1.47729   1
   4  -4  -2 17.5391 1.73123   2
  -4   4   2 19.6188 1.70427   4
  -4   4   2 16.9773 1.76270   3
   3  -4  -2 58.8806 1.89549   1
   3  -4  -2 61.4696 2.81821   2
   3  -4  -2 60.9018 1.78085   1
  -3   4   2 61.7283 2.97290   3
  -3   4   2 59.1528 2.57912   4
   2  -4  -2 81.6825 3.22810   2
   2  -4  -2 81.9364 2.53155   1
  -2   4   2 80.7764 3.39681   3
  -2   4   2 83.6873 2.95035   4
  -2   4   2 86.2995 2.47705   1
   1  -4  -2 234.300 6.57289   1
   1  -4  -2 227.351 6.79917   2
  -1   4   2 235.755 6.57996   4
  -1   4   2 216.980 6.34274   1
  -1   4   2 231.337 6.88642   3
   0  -4  -2 235.766 6.93396   2
   0  -4  -2 233.088 7.15554   1
   0   4   2 234.803 6.85014   4
   0   4   2 236.375 6.87011   3
  -1  -4  -2 321.745 9.15508   3
  -1  -4  -2 359.092 9.84383   2
  -1  -4  -2 351.456 10.4716   1
   1   4   2 353.568 9.87325   4
   1   4   2 353.708 9.49063   3
  -2  -4  -2 106.369 3.99502   2
  -2  -4  -2 97.7136 3.25121   3
  -2  -4  -2 112.742 4.84575   1
   2   4   2 103.482 3.97968   4
   2   4   2 112.715 3.51833   3
  -3  -4  -2 2.99067 1.21753   2
  -3  -4  -2 0.90737 2.01486   1
  -3  -4  -2 0.96807 1.10301   3
   3   4   2 1.11045 0.93078   3
   3   4   2 0.58734 1.22167   4
  -4  -4  -2 10.4617 3.26147   1
  -4  -4  -2 9.72881 1.59369   3
  -4  -4  -2 12.8895 2.27483   2
   4   4   2 13.4569 2.58088   4
   4   4   2 12.1939 1.45247   3
  -5  -4  -2 14.0762 3.85485   1
  -5  -4  -2 14.1428 2.67941   2
   5   4   2 12.7177 2.83094   4
   5   4   2 14.2574 1.69014   3
  -6  -4  -2 11.3195 4.19836   1
  -6  -4  -2 9.07656 3.36478   2
   6   4   2 4.97872 2.53368   4
  -7  -4  -2 3.40431 4.65221   1
  -7  -4  -2 2.35587 4.11827   2
   7   4   2 3.86178 2.79278   4
  -8  -4  -2 2.34287 5.78246   1
  -8  -4  -2 7.88918 5.35790   2
   8   4   2 -1.3231 3.41334   4
  -9  -4  -2 -4.1384 7.25707   1
  -9  -4  -2 -1.6039 9.78108   2
   9   4   2 0.80594 4.17881   4
  13  -5  -2 -16.295 6.47221   3
  12  -5  -2 2.86489 5.83889   3
  12  -5  -2 -10.746 5.20908   2
 -12   5   2 -0.5707 6.15817   1
 -12   5   2 -3.9538 5.31713   4
  11  -5  -2 7.40044 4.52851   3
  11  -5  -2 4.22920 4.32228   2
 -11   5   2 10.5420 4.99361   4
 -11   5   2 8.14719 5.51662   1
  10  -5  -2 14.6589 4.44618   3
  10  -5  -2 6.12387 6.57409   2
 -10   5   2 4.93716 4.57310   1
 -10   5   2 4.57276 4.02467   4
   9  -5  -2 50.8841 4.80254   2
  -9   5   2 54.7251 5.49430   4
  -9   5   2 66.3146 5.78769   3
  -9   5   2 71.9530 5.04981   1
   8  -5  -2 -2.2467 2.23777   2
  -8   5   2 -5.3935 2.61664   3
  -8   5   2 1.77135 2.57253   1
  -8   5   2 3.68588 3.33601   4
   7  -5  -2 50.9332 3.45297   2
  -7   5   2 47.6919 3.79073   4
  -7   5   2 52.8585 3.42059   1
   6  -5  -2 129.149 5.26824   2
  -6   5   2 121.553 4.46532   1
  -6   5   2 124.354 5.37759   3
  -6   5   2 125.623 5.19996   4
   5  -5  -2 252.796 7.19838   1
   5  -5  -2 277.206 8.46445   2
   5  -5  -2 257.755 7.27554   1
  -5   5   2 264.863 8.79746   3
  -5   5   2 253.506 8.23954   4
   4  -5  -2 148.529 5.28401   2
  -4   5   2 149.615 5.24449   4
  -4   5   2 148.384 5.62095   3
   3  -5  -2 421.163 11.7650   2
  -3   5   2 401.560 11.9934   3
  -3   5   2 406.789 11.4838   4
   2  -5  -2 80.9531 2.95213   1
   2  -5  -2 87.9101 3.41732   2
  -2   5   2 84.8308 3.18312   4
  -2   5   2 84.9799 2.62119   1
  -2   5   2 83.4267 3.62803   3
   1  -5  -2 164.135 5.21006   1
   1  -5  -2 159.459 5.33580   2
  -1   5   2 166.354 5.15958   4
  -1   5   2 160.492 5.47693   3
   0  -5  -2 336.371 9.71105   2
   0  -5  -2 336.785 10.0102   1
   0   5   2 339.574 9.61675   4
   0   5   2 335.376 9.60174   3
  -1  -5  -2 162.270 6.17299   1
  -1  -5  -2 171.589 5.55584   2
   1   5   2 162.562 5.20304   3
   1   5   2 163.083 5.50369   4
  -2  -5  -2 47.8544 2.06568   3
  -2  -5  -2 55.0673 3.55491   1
  -2  -5  -2 48.4219 2.75992   2
   2   5   2 56.2056 2.80187   4
   2   5   2 48.6777 2.39350   3
  -3  -5  -2 8.52994 1.26828   3
  -3  -5  -2 9.06109 1.78357   2
   3   5   2 8.13176 1.32840   3
   3   5   2 6.31862 1.96933   4
  -4  -5  -2 2.54299 2.31054   2
  -4  -5  -2 2.98647 3.00649   1
   4   5   2 -0.2666 1.72954   4
  -5  -5  -2 7.26094 4.04841   1
  -5  -5  -2 10.9640 4.65425   2
   5   5   2 -0.1067 2.28873   4
  -6  -5  -2 7.97293 5.02210   1
  -6  -5  -2 8.63876 3.89507   2
   6   5   2 3.82204 2.72896   4
  -7  -5  -2 8.34205 6.22909   1
  -7  -5  -2 3.69348 4.74067   2
   7   5   2 -1.2781 2.99741   4
  -8  -5  -2 5.50366 7.52818   1
  -8  -5  -2 0.72583 5.70660   2
   8   5   2 -6.5396 3.35671   4
  13  -6  -2 6.56529 6.91122   3
 -13   6   2 -2.3008 8.13903   1
  12  -6  -2 6.84004 5.25210   2
  12  -6  -2 12.9990 5.65748   3
 -12   6   2 -0.1282 6.56986   1
 -12   6   2 2.66951 5.62627   4
  11  -6  -2 8.23457 4.67359   3
  11  -6  -2 3.60258 4.30308   2
 -11   6   2 4.50026 4.76789   4
 -11   6   2 5.78383 5.35124   1
  10  -6  -2 9.15432 4.20326   3
  10  -6  -2 15.0219 3.98540   2
 -10   6   2 11.2874 4.30098   4
 -10   6   2 11.9551 4.51934   3
   9  -6  -2 23.7701 4.05601   2
  -9   6   2 26.7839 4.23707   3
  -9   6   2 31.5802 4.17382   1
  -9   6   2 25.5223 4.57066   4
   8  -6  -2 0.82613 2.22633   2
  -8   6   2 5.51482 3.13983   3
  -8   6   2 4.49827 3.07813   4
  -8   6   2 1.56488 2.34603   1
   7  -6  -2 45.4167 3.29277   2
  -7   6   2 38.3053 4.23223   3
  -7   6   2 47.3690 3.62438   4
   6  -6  -2 113.214 3.83825   1
   6  -6  -2 123.328 5.22751   2
   6  -6  -2 111.541 3.76950   1
  -6   6   2 116.464 5.60345   3
  -6   6   2 125.901 5.32903   4
   5  -6  -2 211.383 6.95699   2
  -5   6   2 194.852 7.38009   3
  -5   6   2 200.356 6.99116   4
   4  -6  -2 218.206 7.22611   2
  -4   6   2 225.108 7.27529   4
  -4   6   2 220.230 7.63431   3
   3  -6  -2 64.4631 3.02986   2
  -3   6   2 55.0824 2.90258   4
  -3   6   2 60.0114 3.33125   3
   2  -6  -2 15.0933 1.56736   2
   2  -6  -2 11.4399 1.48848   1
  -2   6   2 14.2468 1.42468   4
  -2   6   2 9.86135 1.24856   1
  -2   6   2 17.1325 2.22001   3
   1  -6  -2 89.5444 3.66222   2
   1  -6  -2 85.7712 3.67846   1
  -1   6   2 90.0235 3.57619   4
  -1   6   2 86.4162 3.81936   3
   0  -6  -2 89.9024 3.68263   2
   0  -6  -2 89.9756 4.14288   1
   0   6   2 87.6982 3.63821   4
   0   6   2 87.6635 3.74428   3
  -1  -6  -2 38.2160 3.46895   1
  -1  -6  -2 41.5054 2.34344   2
   1   6   2 39.1189 2.41213   4
   1   6   2 48.4738 2.64734   3
  -2  -6  -2 13.3812 1.59136   3
  -2  -6  -2 14.9882 3.23946   1
   2   6   2 16.2419 2.50213   4
   2   6   2 14.6179 1.79201   3
  -3  -6  -2 1.02846 2.07230   2
  -3  -6  -2 6.16532 3.23640   1
   3   6   2 0.16634 1.60650   4
  -4  -6  -2 -0.9996 2.61144   2
  -4  -6  -2 1.61542 3.97669   1
   4   6   2 4.55653 2.30708   4
  -5  -6  -2 8.20568 5.07943   1
  -5  -6  -2 6.36966 3.65450   2
   5   6   2 5.45922 2.66151   4
  -6  -6  -2 3.26615 5.75423   1
  -6  -6  -2 3.57188 4.38148   2
   6   6   2 3.54140 2.86367   4
  -7  -6  -2 -0.9955 6.98282   1
  -7  -6  -2 -13.352 4.77762   2
   7   6   2 -1.7689 3.68784   4
  13  -7  -2 5.29501 7.11052   3
 -13   7   2 -4.2824 8.29387   4
  12  -7  -2 5.85958 5.18079   3
  12  -7  -2 -3.0881 5.32732   2
 -12   7   2 1.23681 9.19155   1
 -12   7   2 -10.962 5.53342   4
  11  -7  -2 6.19853 4.33939   2
  11  -7  -2 0.65945 4.94742   3
 -11   7   2 4.28049 4.82630   4
 -11   7   2 9.79259 5.40913   1
  10  -7  -2 9.35153 3.82890   2
 -10   7   2 14.5827 4.21184   1
 -10   7   2 20.0459 5.25406   4
 -10   7   2 7.25918 4.63059   3
   9  -7  -2 20.2899 4.19709   2
  -9   7   2 14.6744 4.36889   4
  -9   7   2 14.1400 3.73612   3
   8  -7  -2 16.2603 3.23898   2
   8  -7  -2 10.0412 1.98302   1
  -8   7   2 6.73140 3.44041   3
  -8   7   2 1.80530 6.20172   4
   7  -7  -2 7.15838 1.36195   1
   7  -7  -2 4.16591 1.52525   1
  -7   7   2 7.50806 3.17782   4
  -7   7   2 3.65734 2.72722   3
   6  -7  -2 73.8097 3.90177   2
  -6   7   2 70.2325 4.85503   3
  -6   7   2 70.6232 4.11616   4
   5  -7  -2 66.0577 3.45281   2
  -5   7   2 70.2340 4.01806   3
  -5   7   2 65.0778 3.68277   4
   4  -7  -2 86.2329 3.77720   2
  -4   7   2 81.6478 3.90359   4
  -4   7   2 76.5623 4.20702   3
   3  -7  -2 58.9386 3.05204   2
  -3   7   2 65.2814 3.59280   3
  -3   7   2 63.7916 3.12109   4
   2  -7  -2 -0.4685 1.31882   1
   2  -7  -2 0.48980 1.11301   2
  -2   7   2 -1.0147 1.25886   1
  -2   7   2 -0.2638 1.11618   4
  -2   7   2 1.38598 1.70821   3
   1  -7  -2 25.1173 2.59760   1
   1  -7  -2 26.8790 1.90692   2
  -1   7   2 32.5626 2.85584   3
  -1   7   2 29.4275 2.08097   4
   0  -7  -2 45.8556 3.55130   1
   0  -7  -2 46.5023 3.04849   2
   0   7   2 41.5568 2.90933   4
   0   7   2 43.4866 3.04317   3
  -1  -7  -2 23.7381 2.75956   2
  -1  -7  -2 25.7045 3.41955   1
   1   7   2 26.3924 2.67001   3
  -2  -7  -2 7.48762 3.69018   1
  -2  -7  -2 2.67688 2.05742   2
   2   7   2 9.51956 2.32711   4
   2   7   2 7.29471 1.83652   3
  -3  -7  -2 -0.5938 2.25486   2
  -3  -7  -2 7.02457 3.97430   1
   3   7   2 -2.5990 2.17761   4
  -4  -7  -2 7.92569 4.79376   1
  -4  -7  -2 -2.7500 3.25042   2
   4   7   2 -0.8191 2.43809   4
  -5  -7  -2 -0.1124 5.87444   1
  -5  -7  -2 4.01599 3.85091   2
   5   7   2 0.71155 2.72359   4
  -6  -7  -2 -2.6012 6.83115   1
  -6  -7  -2 0.83338 5.19724   2
   6   7   2 -2.4834 3.16876   4
  -7  -7  -2 5.97081 7.49975   1
  -7  -7  -2 -11.657 6.19365   2
  12  -8  -2 -1.0851 5.11852   2
  12  -8  -2 0.30605 5.56583   3
 -12   8   2 -1.8189 5.55364   4
  11  -8  -2 -0.4632 4.51239   3
  11  -8  -2 -5.4311 4.37690   2
 -11   8   2 11.3309 5.05452   4
  10  -8  -2 6.19475 3.80927   2
 -10   8   2 1.03935 4.25148   3
 -10   8   2 5.34165 4.12116   4
   9  -8  -2 19.8717 3.60300   2
  -9   8   2 16.3933 4.08128   4
  -9   8   2 12.7134 4.20411   3
   8  -8  -2 11.2916 5.04017   2
  -8   8   2 10.6758 3.45814   4
  -8   8   2 12.8448 3.99863   3
   7  -8  -2 -2.4604 2.18613   2
  -7   8   2 1.69771 2.72526   3
   6  -8  -2 23.6066 3.20799   2
  -6   8   2 25.6122 3.53709   4
   5  -8  -2 66.2663 4.08867   2
  -5   8   2 67.6978 4.89421   3
  -5   8   2 79.5925 4.47946   4
   4  -8  -2 37.9370 3.07698   2
  -4   8   2 27.0017 3.59202   4
  -4   8   2 34.3000 3.33991   3
   3  -8  -2 27.2503 2.74760   2
  -3   8   2 24.7826 2.76173   4
  -3   8   2 25.3828 3.05829   3
   2  -8  -2 2.26587 1.52347   2
   2  -8  -2 0.30265 1.72396   1
  -2   8   2 1.53961 1.74843   4
  -2   8   2 2.52100 2.09781   3
   1  -8  -2 13.4011 2.60063   1
   1  -8  -2 13.4331 2.77087   2
  -1   8   2 13.1929 2.57289   3
  -1   8   2 9.01213 2.29639   4
   0  -8  -2 15.6357 2.69156   2
   0  -8  -2 25.7348 3.44638   1
   0   8   2 21.4425 2.81524   4
   0   8   2 19.7263 2.73508   3
  -1  -8  -2 14.1034 3.75798   1
  -1  -8  -2 11.8369 2.47944   2
   1   8   2 12.1246 2.39845   3
   1   8   2 12.5924 2.52315   4
  -2  -8  -2 0.90498 2.16411   2
   2   8   2 1.56929 2.23536   4
  -3  -8  -2 2.37737 4.99625   1
  -3  -8  -2 0.77925 2.55880   2
   3   8   2 -0.4600 2.35037   4
  -4  -8  -2 -4.7576 3.73824   2
  -4  -8  -2 -2.0482 5.80927   1
   4   8   2 -1.9479 3.16356   4
  -5  -8  -2 4.94624 4.74153   2
  -5  -8  -2 5.16770 6.57199   1
   5   8   2 -3.1266 3.07532   4
  -6  -8  -2 2.24422 6.10317   2
  -6  -8  -2 -8.3516 9.84918   1
   6   8   2 -9.5939 3.36251   4
  12  -9  -2 1.67643 4.77743   2
  12  -9  -2 -3.4331 5.33407   3
 -12   9   2 -5.5041 5.68342   4
  11  -9  -2 15.1701 4.74944   2
  11  -9  -2 -0.1979 4.89641   3
 -11   9   2 1.25893 5.29940   4
  10  -9  -2 12.4589 4.45673   2
 -10   9   2 6.01258 4.41413   3
 -10   9   2 4.68606 4.61996   4
   9  -9  -2 9.48637 3.58495   2
  -9   9   2 6.33168 4.24303   4
  -9   9   2 -3.0654 3.53299   3
   8  -9  -2 16.6704 3.21565   2
  -8   9   2 15.4283 3.97460   3
  -8   9   2 12.8455 3.91273   4
   7  -9  -2 2.90620 2.72791   2
  -7   9   2 5.97437 3.49991   4
  -7   9   2 -1.2174 3.34727   3
   6  -9  -2 6.08655 2.59178   2
  -6   9   2 8.61764 3.02587   3
  -6   9   2 13.5235 3.45487   4
   5  -9  -2 29.5888 3.03627   2
  -5   9   2 32.4113 3.66949   4
   4  -9  -2 23.4967 2.99204   2
  -4   9   2 14.9123 3.41546   3
  -4   9   2 17.1316 2.91727   4
   3  -9  -2 1.29055 1.75115   2
  -3   9   2 6.15460 1.79887   1
  -3   9   2 10.6046 2.77631   4
  -3   9   2 4.79335 2.70230   3
   2  -9  -2 31.7135 2.88687   2
   2  -9  -2 34.8392 3.17701   1
  -2   9   2 35.0368 3.27085   4
  -2   9   2 31.4121 3.94391   3
   1  -9  -2 31.3335 3.81876   1
   1  -9  -2 28.1035 3.20793   2
  -1   9   2 31.2627 3.81594   3
  -1   9   2 23.2781 3.04768   4
   0  -9  -2 2.92602 2.05626   2
   0  -9  -2 3.96272 3.41819   1
   0   9   2 11.8751 2.80096   3
   0   9   2 4.70503 2.64813   4
  -1  -9  -2 7.82494 4.66243   1
  -1  -9  -2 3.05165 2.49479   2
   1   9   2 5.48175 2.34625   4
  -2  -9  -2 8.38831 4.92047   1
  -2  -9  -2 3.64931 2.38130   2
   2   9   2 0.75195 2.38558   4
  -3  -9  -2 2.12670 3.46107   2
  -3  -9  -2 -0.9198 6.25277   1
   3   9   2 2.16784 2.82262   4
  -4  -9  -2 0.67765 4.23932   2
  -4  -9  -2 -13.654 6.49158   1
   4   9   2 -1.0405 3.35307   4
  -5  -9  -2 -0.2595 8.18673   1
  -5  -9  -2 13.6550 5.70215   2
   5   9   2 3.79633 3.83589   4
  12 -10  -2 -3.9176 5.50888   3
  12 -10  -2 6.19301 5.61031   2
 -12  10   2 -9.1605 8.75433   4
  11 -10  -2 -3.0676 4.92017   3
  11 -10  -2 2.76879 4.53326   2
 -11  10   2 4.87735 5.75020   4
  10 -10  -2 3.75756 4.05153   3
  10 -10  -2 3.81116 3.96749   2
 -10  10   2 2.88661 4.63863   4
 -10  10   2 -1.6833 4.84612   3
   9 -10  -2 4.25504 3.68150   2
  -9  10   2 0.58906 4.64590   3
  -9  10   2 10.8548 4.62082   4
   8 -10  -2 2.83723 3.10781   2
  -8  10   2 0.98941 3.87216   3
  -8  10   2 4.25449 3.95959   4
   7 -10  -2 4.01645 2.95491   2
  -7  10   2 2.05354 3.78434   4
  -7  10   2 1.63848 3.77519   3
   6 -10  -2 -0.4457 2.51231   2
  -6  10   2 -0.6080 3.29538   3
  -6  10   2 0.67721 3.05721   4
   5 -10  -2 6.26789 2.63431   2
  -5  10   2 8.69594 3.18126   4
  -5  10   2 4.60630 3.26762   3
   4 -10  -2 14.7236 2.91342   2
  -4  10   2 13.1023 3.35037   4
  -4  10   2 18.1305 6.37770   3
   3 -10  -2 4.30115 2.25497   2
  -3  10   2 4.39762 2.93956   1
  -3  10   2 8.75118 3.46266   3
  -3  10   2 1.58174 2.57520   4
   2 -10  -2 4.17729 2.23371   2
  -2  10   2 4.96005 2.64399   4
  -2  10   2 6.99364 2.96744   3
  -2  10   2 3.32768 3.06427   1
   1 -10  -2 21.2809 3.38730   2
   1 -10  -2 24.6008 3.82772   1
  -1  10   2 18.2055 2.95163   4
  -1  10   2 21.7324 3.82184   3
   0 -10  -2 -2.8939 4.10054   1
   0 -10  -2 -0.7025 2.34343   2
   0  10   2 -1.4309 2.53045   4
   0  10   2 -4.0405 3.02724   3
  -1 -10  -2 -0.3089 2.45620   2
  -1 -10  -2 6.72945 5.00423   1
   1  10   2 0.16534 2.64054   4
  -2 -10  -2 -5.5743 2.88000   2
  -2 -10  -2 9.95228 5.94944   1
   2  10   2 -2.2863 2.82327   4
  -3 -10  -2 13.2288 7.24677   1
  -3 -10  -2 -1.9961 3.65914   2
   3  10   2 -2.8376 4.78273   4
  -4 -10  -2 -5.1561 9.51525   2
  -4 -10  -2 12.1540 8.61861   1
   4  10   2 3.73812 3.94558   4
  11 -11  -2 1.60949 5.37085   3
  11 -11  -2 -3.6563 4.72726   2
 -11  11   2 3.32491 6.09498   4
  10 -11  -2 -6.6503 4.01025   2
  10 -11  -2 7.89376 4.94432   3
 -10  11   2 3.77194 5.35603   4
   9 -11  -2 7.72569 3.72574   2
  -9  11   2 -4.2560 4.71415   4
  -9  11   2 2.17021 4.47365   3
   8 -11  -2 1.94001 3.06288   2
  -8  11   2 -4.7753 4.06900   3
  -8  11   2 4.64947 4.51772   4
   7 -11  -2 -2.1800 3.18607   2
  -7  11   2 4.01863 3.92267   4
  -7  11   2 -4.3138 3.93299   3
   6 -11  -2 3.06459 2.81402   2
  -6  11   2 1.53864 3.16691   4
  -6  11   2 1.50403 3.61337   3
   5 -11  -2 4.96575 2.63053   2
  -5  11   2 -3.3652 3.64331   3
  -5  11   2 7.34882 3.70689   4
   4 -11  -2 3.97467 2.30850   2
  -4  11   2 -3.3174 3.03136   4
  -4  11   2 -6.7395 4.01461   3
   3 -11  -2 5.35471 2.24298   2
  -3  11   2 3.06839 3.07338   4
  -3  11   2 0.89462 4.50083   3
   2 -11  -2 0.70086 2.56294   2
  -2  11   2 1.67156 3.15808   4
  -2  11   2 3.54488 4.93256   3
   1 -11  -2 -0.6822 2.51273   2
   1 -11  -2 0.63608 4.39678   1
  -1  11   2 -1.6268 2.72355   4
  -1  11   2 5.50113 4.01792   3
   0 -11  -2 -1.6930 2.90685   2
   0 -11  -2 -8.7217 5.06676   1
   0  11   2 -1.3645 2.65061   4
  -1 -11  -2 -2.4035 5.98516   1
  -1 -11  -2 4.40198 3.04649   2
   1  11   2 2.19098 3.01759   4
  -2 -11  -2 4.10052 4.27261   2
  -2 -11  -2 -1.6704 7.53952   1
   2  11   2 0.59146 3.27677   4
  -3 -11  -2 2.33593 4.83680   2
  -3 -11  -2 1.28768 8.52227   1
   3  11   2 4.43352 4.12853   4
  11 -12  -2 3.32803 6.35733   3
  11 -12  -2 -0.1880 4.90961   2
 -11  12   2 -6.0344 6.12846   4
  10 -12  -2 -0.2530 4.31967   2
  10 -12  -2 1.59347 5.66769   3
 -10  12   2 0.84317 5.54613   4
   9 -12  -2 0.33462 3.90745   2
   9 -12  -2 -0.5769 4.81635   3
  -9  12   2 -0.6186 4.89547   3
  -9  12   2 1.47703 5.83959   4
   8 -12  -2 -1.1017 3.57670   2
  -8  12   2 -2.5604 4.23638   3
  -8  12   2 5.93808 4.89721   4
   7 -12  -2 1.55839 3.42595   2
  -7  12   2 -4.1072 4.57326   3
  -7  12   2 2.29704 4.42156   4
   6 -12  -2 -4.9502 2.70207   2
  -6  12   2 -3.4599 4.43715   3
  -6  12   2 -1.5747 4.01452   4
   5 -12  -2 1.82235 2.64280   2
  -5  12   2 -5.4572 4.38588   3
  -5  12   2 3.34124 4.13306   4
   4 -12  -2 1.71778 2.55859   2
  -4  12   2 -1.6002 3.38719   4
  -4  12   2 -1.7809 4.30447   3
   3 -12  -2 -0.2584 2.41256   2
  -3  12   2 -3.3835 4.72401   3
  -3  12   2 -3.9829 3.29399   4
   2 -12  -2 -5.0283 2.86717   2
   2 -12  -2 8.90601 5.51920   3
  -2  12   2 -0.9127 3.68385   4
  -2  12   2 -3.0263 4.99071   3
   1 -12  -2 2.12283 3.15838   2
  -1  12   2 11.6951 3.36530   4
   0 -12  -2 0.70347 3.54396   2
  -1 -12  -2 -1.0416 3.56458   2
   1  12   2 -8.0292 3.34500   4
  10 -13  -2 7.00774 6.01276   3
  10 -13  -2 -0.1016 4.95823   2
 -10  13   2 -5.2211 6.35089   4
   9 -13  -2 6.17548 6.30221   3
   9 -13  -2 5.57631 4.19159   2
   8 -13  -2 2.61911 6.01908   3
   8 -13  -2 0.52749 4.11132   2
  -8  13   2 -3.6459 5.32536   3
  -8  13   2 -0.1941 5.93960   4
   7 -13  -2 -2.6326 5.30754   3
   7 -13  -2 -3.1209 3.30840   2
  -7  13   2 2.73820 5.41581   3
  -7  13   2 -1.1469 5.15369   4
   6 -13  -2 -2.7724 3.10607   2
  -6  13   2 1.16700 4.84655   4
  -6  13   2 3.45060 5.40458   3
   5 -13  -2 -2.7954 3.00337   2
  -5  13   2 6.29413 4.89161   4
  -5  13   2 -4.0015 5.44099   3
   4 -13  -2 -2.7553 6.35646   3
   4 -13  -2 -0.6077 2.85755   2
  -4  13   2 -6.4161 3.95016   4
   3 -13  -2 -0.9304 3.27326   2
   3 -13  -2 0.26732 6.24317   3
  -3  13   2 0.96672 4.36330   4
   2 -13  -2 -1.5879 3.42166   2
  -2  13   2 -1.8081 3.72718   4
   1 -13  -2 2.75033 3.68660   2
  -1  13   2 5.19932 4.16879   4
   8 -14  -2 -3.7870 4.08726   2
   8 -14  -2 -5.5103 7.38490   3
  -8  14   2 -7.4502 6.50568   4
   7 -14  -2 -8.6431 7.50709   3
   7 -14  -2 -3.4217 4.02441   2
  -7  14   2 -9.1639 5.63054   4
   6 -14  -2 -7.9653 6.89955   3
   6 -14  -2 3.64416 3.98629   2
  -6  14   2 2.72379 5.31928   4
   5 -14  -2 3.05822 7.23805   3
   5 -14  -2 3.14372 3.59515   2
  -5  14   2 5.27217 5.35443   4
   4 -14  -2 -0.0959 4.10780   2
   4 -14  -2 -4.2397 7.66383   3
  -4  14   2 -1.1488 4.47595   4
   3 -14  -2 4.25592 3.75183   2
  -3  14   2 8.64699 4.83628   4
   2 -14   3 1.68879 4.39516   2
  -3  14  -3 2.75019 4.73693   4
   3 -14   3 -5.2020 3.78573   2
  -4  14  -3 6.40603 5.05849   4
   4 -14   3 -0.3146 3.69549   2
   4 -14   3 -4.2411 5.91971   3
  -5  14  -3 -1.5958 5.88826   4
   5 -14   3 0.15076 4.46037   2
   5 -14   3 4.92005 6.32339   3
  -6  14  -3 -5.6378 5.37840   4
   6 -14   3 2.33931 6.20221   3
   6 -14   3 -6.7597 4.46943   2
  -7  14  -3 8.29570 6.22447   4
   7 -14   3 4.34744 4.65469   2
   7 -14   3 -2.8932 7.94520   3
   0  13  -3 2.79224 4.62263   4
   0 -13   3 3.64554 3.80914   2
  -1  13  -3 -0.8530 4.11986   4
   1 -13   3 1.46156 3.83266   2
  -2  13  -3 -0.3883 4.45305   4
   2 -13   3 -1.5353 3.64964   2
  -3  13  -3 5.05625 4.12269   4
   3 -13   3 -2.6860 4.82812   3
   3 -13   3 -0.2303 3.42188   2
  -4  13  -3 4.02649 4.50487   4
   4 -13   3 -3.6063 3.57445   2
   4 -13   3 1.09917 5.74038   3
  -5  13  -3 -6.1894 5.08327   4
   5 -13   3 2.09189 5.33835   3
   5 -13   3 2.71680 3.58705   2
  -6  13  -3 3.74096 5.14604   4
   6 -13   3 7.45484 4.86086   3
   6 -13   3 2.18691 3.91361   2
  -7  13  -3 0.23222 5.56242   4
   7 -13   3 0.38819 4.78695   3
   7 -13   3 0.93193 4.15801   2
  -8  13  -3 -2.6529 6.16796   4
   8 -13   3 5.55067 6.17951   3
   8 -13   3 1.58665 4.30077   2
  -9  13  -3 -3.0791 5.63893   4
   9 -13   3 -8.1715 4.61882   2
   9 -13   3 3.41810 5.23949   3
   2  12  -3 7.20461 4.02306   4
   2  12  -3 -1.0376 7.10403   1
  -2 -12   3 1.16131 4.60987   2
   1  12  -3 4.44861 4.92194   4
   1  12  -3 -0.4567 6.42242   1
  -1 -12   3 -0.9632 3.99345   2
   0  12  -3 -2.3035 5.59615   1
   0  12  -3 0.66887 3.59515   4
   0 -12   3 -3.5297 3.17745   2
  -1  12  -3 3.94072 3.76334   4
   1 -12   3 0.27640 3.34067   2
  -2  12  -3 -3.1089 3.55454   4
   2 -12   3 -8.8443 7.71765   3
   2 -12   3 0.58737 3.06295   2
  -3  12  -3 3.24020 3.84294   4
   3 -12   3 -0.0727 4.12751   3
   3 -12   3 -5.6783 2.90749   2
  -4  12  -3 1.93529 3.84153   4
   4 -12   3 -0.5694 4.59444   3
   4 -12   3 -2.7352 3.22610   2
  -5  12  -3 -0.8336 4.44393   4
   5 -12   3 1.56307 3.21789   2
   5 -12   3 0.37995 3.79618   3
  -6  12  -3 0.67063 4.39425   4
   6 -12   3 2.17181 3.25947   2
   6 -12   3 -0.1828 3.90521   3
  -7  12  -3 4.62281 5.17536   4
   7 -12   3 -3.3137 3.53108   2
   7 -12   3 -0.3293 3.94251   3
  -8  12  -3 -4.4374 5.22119   4
   8 -12   3 -3.2277 3.95568   2
   8 -12   3 0.70766 4.16891   3
  -9  12  -3 8.08065 5.95866   4
   9 -12   3 4.96461 4.22670   2
   9 -12   3 -2.8379 4.57042   3
 -10  12  -3 -4.4570 5.91979   4
  10 -12   3 -2.5609 4.52643   3
   3  11  -3 1.86982 6.66748   1
  -3 -11   3 2.47337 4.32186   2
   2  11  -3 -13.562 5.97399   1
   2  11  -3 0.12500 3.30985   4
  -2 -11   3 2.40155 3.72656   2
   1  11  -3 1.99212 3.56496   4
   1  11  -3 11.0502 5.42258   1
  -1 -11   3 3.65428 3.46747   2
   0  11  -3 2.84063 3.54458   4
   0 -11   3 0.09122 2.65999   2
  -1  11  -3 1.00820 3.01988   4
  -1  11  -3 2.15046 3.80722   1
   1 -11   3 8.07000 2.85877   3
   1 -11   3 -3.0129 2.52650   2
  -2  11  -3 -3.5844 3.07531   4
  -2  11  -3 -0.3809 3.00840   1
   2 -11   3 -5.6099 3.34514   3
   2 -11   3 1.92623 2.36986   2
  -3  11  -3 4.78885 3.02297   4
   3 -11   3 5.44735 3.65729   3
   3 -11   3 -0.9967 2.62976   2
  -4  11  -3 -0.4064 3.20697   4
   4 -11   3 0.44708 2.54884   2
   4 -11   3 -1.8663 3.45478   3
  -5  11  -3 0.60646 3.85064   4
   5 -11   3 -2.3555 3.71201   3
   5 -11   3 -0.7212 2.59358   2
  -6  11  -3 12.0451 4.33712   4
   6 -11   3 0.88896 3.05359   2
   6 -11   3 3.27492 3.51616   3
  -7  11  -3 7.42199 4.48138   4
   7 -11   3 4.33120 3.13068   2
   7 -11   3 4.85349 4.07204   3
  -8  11  -3 -4.5072 4.53688   4
   8 -11   3 -1.0156 3.10974   2
   8 -11   3 4.12360 3.94744   3
  -9  11  -3 2.66893 4.85257   4
   9 -11   3 -1.7192 3.78585   3
   9 -11   3 0.88446 3.49901   2
 -10  11  -3 0.74503 5.53547   4
  10 -11   3 2.49040 4.39022   3
   5  10  -3 0.13771 4.13360   4
  -5 -10   3 2.60959 5.30741   2
   4  10  -3 0.81599 6.41493   1
   4  10  -3 -0.1611 3.83507   4
  -4 -10   3 2.85922 6.95512   2
   3  10  -3 -6.3509 3.10060   4
   3  10  -3 -7.9742 5.70702   1
  -3 -10   3 2.69226 3.53222   2
   2  10  -3 0.43673 4.36021   1
   2  10  -3 -1.7494 2.88625   4
  -2 -10   3 0.02586 3.33943   2
   1  10  -3 2.85708 2.66641   4
   1  10  -3 0.81144 4.19766   1
  -1 -10   3 -0.1074 2.74190   2
   0  10  -3 5.76535 2.88885   4
   0 -10   3 5.41440 2.31593   3
   0 -10   3 2.92423 2.70531   2
  -1  10  -3 10.2393 3.20060   1
  -1  10  -3 8.09540 3.07849   4
   1 -10   3 5.53370 2.50659   3
   1 -10   3 6.63109 2.66699   2
  -2  10  -3 -1.3903 2.67136   4
  -2  10  -3 0.88880 2.44716   1
   2 -10   3 5.96448 2.86018   3
   2 -10   3 2.51362 2.43678   2
  -3  10  -3 -2.1378 2.56389   4
  -3  10  -3 1.27902 2.44777   1
   3 -10   3 -2.2385 2.28818   2
   3 -10   3 5.45755 3.13239   3
  -4  10  -3 1.79026 2.85026   4
  -4  10  -3 3.79714 2.14239   1
   4 -10   3 2.91780 3.03754   3
   4 -10   3 5.83921 2.51600   2
  -5  10  -3 6.51970 3.05885   1
  -5  10  -3 3.77075 2.88776   4
   5 -10   3 -3.0795 2.73363   3
   5 -10   3 0.18443 2.50393   2
  -6  10  -3 2.98754 3.75610   4
   6 -10   3 5.92023 3.20635   3
   6 -10   3 5.35767 5.11712   2
  -7  10  -3 -2.5508 3.76654   4
   7 -10   3 -2.2402 2.99443   3
   7 -10   3 2.55197 2.67965   2
  -8  10  -3 -3.5933 4.11632   4
   8 -10   3 -0.7847 3.29921   3
   8 -10   3 4.07560 2.97104   2
  -9  10  -3 0.72583 4.64256   4
   9 -10   3 2.42571 3.23882   2
   9 -10   3 3.04243 3.91169   3
 -10  10  -3 1.62296 5.14628   4
  10 -10   3 0.12311 4.34035   3
 -11  10  -3 4.27302 5.96435   4
  11 -10   3 5.96516 5.50707   3
   6   9  -3 -2.9240 3.94455   4
   6   9  -3 -4.5732 6.83947   1
  -6  -9   3 -3.8330 5.24130   2
   5   9  -3 0.34534 3.36069   4
   5   9  -3 -1.6684 5.61277   1
  -5  -9   3 4.51775 4.31513   2
   4   9  -3 -1.2249 2.94956   4
   4   9  -3 5.56734 5.20615   1
  -4  -9   3 -1.5855 3.63191   2
   3   9  -3 5.71973 4.09868   1
   3   9  -3 2.91562 2.79397   4
  -3  -9   3 1.10468 3.03918   2
   2   9  -3 0.30339 4.00207   1
   2   9  -3 -0.1974 2.49840   4
  -2  -9   3 1.33547 2.98643   2
   1   9  -3 4.51549 2.52976   4
   1   9  -3 -2.2764 3.62774   1
  -1  -9   3 4.89363 2.33322   2
  -1  -9   3 3.69914 1.73421   3
   0   9  -3 8.14325 2.60491   4
   0   9  -3 4.85432 3.08034   1
   0  -9   3 6.86949 2.36902   2
   0  -9   3 10.6132 2.05725   3
  -1   9  -3 15.8319 2.85177   4
  -1   9  -3 13.8958 2.89325   1
   1  -9   3 22.7713 2.80007   3
   1  -9   3 16.8656 2.62731   2
  -2   9  -3 12.2719 2.99960   4
  -2   9  -3 20.7422 2.58714   1
   2  -9   3 13.8485 2.73464   3
   2  -9   3 14.7694 2.69177   2
  -3   9  -3 3.20454 2.00604   1
  -3   9  -3 0.55298 2.43137   4
   3  -9   3 2.57908 1.93465   2
  -4   9  -3 20.2917 2.29838   1
  -4   9  -3 21.4080 3.82767   4
   4  -9   3 19.3781 3.47381   3
   4  -9   3 22.2370 2.77401   2
  -5   9  -3 20.2056 3.84112   4
  -5   9  -3 22.9216 2.60658   1
   5  -9   3 24.2208 3.63342   3
  -6   9  -3 17.1762 2.75092   1
  -6   9  -3 8.86752 3.73121   4
   6  -9   3 9.50116 3.21878   3
   6  -9   3 8.71638 2.21277   2
  -7   9  -3 4.35162 3.47313   4
  -7   9  -3 6.05402 3.13080   1
   7  -9   3 1.31340 2.91741   3
   7  -9   3 6.48133 2.29332   2
  -8   9  -3 -0.8026 3.87589   1
  -8   9  -3 -4.0353 3.63118   4
   8  -9   3 4.68285 2.40417   2
   8  -9   3 1.62503 3.32653   3
  -9   9  -3 3.60103 4.34764   4
   9  -9   3 1.13671 3.44973   3
   9  -9   3 3.64029 2.81644   2
 -10   9  -3 -0.6717 5.12189   4
  10  -9   3 7.21602 4.10743   3
 -11   9  -3 5.24941 5.43688   4
  11  -9   3 3.25834 4.78289   3
   7   8  -3 6.04623 6.80499   1
   7   8  -3 3.70558 4.23049   4
  -7  -8   3 4.90020 5.62353   2
   6   8  -3 7.96444 5.91403   1
   6   8  -3 -1.4175 3.18902   4
  -6  -8   3 0.40879 4.89394   2
   5   8  -3 4.58495 3.29603   4
   5   8  -3 10.5670 5.59974   1
  -5  -8   3 3.34371 4.30443   2
   4   8  -3 6.14572 2.91393   4
   4   8  -3 5.65770 4.58530   1
  -4  -8   3 5.87228 3.42584   2
   3   8  -3 3.41736 2.29931   4
   3   8  -3 4.74328 4.00190   1
  -3  -8   3 4.93530 3.10376   2
   2   8  -3 2.57596 2.20301   4
   2   8  -3 -0.5607 3.34307   1
  -2  -8   3 2.34537 2.34070   2
   1   8  -3 4.68864 2.59965   1
   1   8  -3 4.51493 1.99277   4
  -1  -8   3 4.34984 1.95919   2
  -1  -8   3 6.72681 1.42524   3
   0   8  -3 17.2446 2.66769   1
   0   8  -3 18.2404 2.80938   4
   0  -8   3 19.8095 2.41801   3
   0  -8   3 14.5295 3.02761   2
  -1   8  -3 21.2986 2.71692   1
  -1   8  -3 16.9074 2.71294   4
   1  -8   3 21.8337 2.37947   3
   1  -8   3 17.4949 2.39368   2
  -2   8  -3 16.7005 2.63135   4
  -2   8  -3 17.2149 2.18140   1
   2  -8   3 20.9912 2.65895   3
  -3   8  -3 3.09079 2.19194   4
  -3   8  -3 6.96578 1.74856   1
   3  -8   3 6.86968 2.00126   3
   3  -8   3 2.84590 1.55652   2
  -4   8  -3 7.21019 1.66377   1
  -4   8  -3 9.27903 3.04772   4
   4  -8   3 5.48148 2.33856   3
   4  -8   3 6.30819 1.69396   2
  -5   8  -3 42.6207 3.12671   1
  -5   8  -3 46.4351 4.41187   4
   5  -8   3 45.2270 2.83836   2
  -6   8  -3 13.6967 3.61525   4
  -6   8  -3 19.3300 2.93188   1
   6  -8   3 20.4302 2.38013   2
   6  -8   3 17.8634 3.05908   3
  -7   8  -3 6.06128 2.95991   1
  -7   8  -3 3.45676 3.21997   4
   7  -8   3 3.41845 2.80983   3
   7  -8   3 3.37099 1.95507   2
  -8   8  -3 -1.6232 3.46795   1
  -8   8  -3 -1.9407 3.01437   4
   8  -8   3 3.03454 2.22148   2
   8  -8   3 2.47027 3.20204   3
  -9   8  -3 -0.0722 4.02745   4
  -9   8  -3 -1.9172 4.76492   1
   9  -8   3 0.10368 2.83456   2
   9  -8   3 -1.7500 3.24213   3
 -10   8  -3 6.96650 4.98188   4
 -10   8  -3 -6.7237 6.99007   1
  10  -8   3 0.35779 3.94221   3
 -11   8  -3 10.4489 11.0087   1
  11  -8   3 -0.3530 4.35932   3
   7   7  -3 0.62981 3.61120   4
  -7  -7   3 2.69767 5.27476   2
  -7  -7   3 -5.4188 6.90301   1
   6   7  -3 0.09028 3.07317   4
  -6  -7   3 0.59550 3.89163   2
  -6  -7   3 -7.2812 5.08800   1
   5   7  -3 8.40485 3.06623   4
  -5  -7   3 -3.9839 5.15184   1
  -5  -7   3 5.58633 3.77898   2
   4   7  -3 8.07532 2.48406   4
   4   7  -3 9.13141 3.87876   1
  -4  -7   3 7.27223 2.88791   2
   3   7  -3 12.9901 3.86078   1
   3   7  -3 9.65746 2.24199   4
  -3  -7   3 12.5352 2.92819   2
   2   7  -3 1.84920 1.72379   4
  -2  -7   3 -0.5949 1.39172   3
  -2  -7   3 0.64659 1.96622   2
   1   7  -3 -0.3575 1.99065   1
   1   7  -3 3.29713 2.04297   4
  -1  -7   3 3.09085 1.87989   2
  -1  -7   3 2.06836 1.11744   3
   0   7  -3 19.2618 2.34102   4
   0   7  -3 18.4145 2.45419   1
   0  -7   3 13.0490 2.62546   2
   0  -7   3 16.8051 1.95204   3
  -1   7  -3 47.3130 2.90573   1
  -1   7  -3 49.2334 2.89949   4
   1  -7   3 47.8701 2.75970   2
   1  -7   3 50.0634 2.80181   3
  -2   7  -3 61.4682 2.96249   1
  -2   7  -3 59.0611 3.13591   4
   2  -7   3 62.1884 3.35740   3
   2  -7   3 58.6644 2.98207   2
  -3   7  -3 39.2167 2.38094   1
  -3   7  -3 40.4838 2.81534   4
   3  -7   3 37.6774 2.95506   3
   3  -7   3 40.5594 2.42460   2
  -4   7  -3 -1.2572 1.29212   1
   4  -7   3 -1.2670 1.55250   3
   4  -7   3 -0.2827 1.19501   2
  -5   7  -3 15.8972 2.15096   1
  -5   7  -3 13.7916 2.84107   4
   5  -7   3 12.3754 2.67801   3
   5  -7   3 15.3594 1.84344   2
  -6   7  -3 11.9962 3.25507   4
  -6   7  -3 13.1944 2.55690   1
   6  -7   3 17.5258 1.92639   2
   6  -7   3 12.4742 2.68684   3
  -7   7  -3 9.76196 3.13793   1
  -7   7  -3 4.53523 3.07185   4
   7  -7   3 7.40882 2.87617   3
   7  -7   3 7.37575 1.87337   2
  -8   7  -3 0.40181 3.19861   4
  -8   7  -3 1.31591 3.69853   1
   8  -7   3 1.46185 2.58367   3
   8  -7   3 6.31497 2.06795   2
  -9   7  -3 -1.0354 4.27563   4
  -9   7  -3 6.90774 5.18291   1
   9  -7   3 0.76787 3.23234   3
 -10   7  -3 -0.6231 4.56955   4
 -10   7  -3 0.29222 5.91678   1
  10  -7   3 -0.4751 3.94533   3
 -11   7  -3 9.99294 7.28692   1
 -11   7  -3 4.54992 5.36436   4
  11  -7   3 4.05015 4.76992   3
 -12   7  -3 -4.7753 9.38775   1
 -12   7  -3 -10.721 5.83026   4
  12  -7   3 -3.4681 5.96702   3
   8   6  -3 0.58991 3.88811   4
  -8  -6   3 1.61589 7.24502   1
  -8  -6   3 14.8164 5.87668   2
   7   6  -3 -6.6868 2.88914   4
  -7  -6   3 -0.9583 6.23154   1
  -7  -6   3 -4.8385 4.22475   2
   6   6  -3 -5.3672 2.57638   4
  -6  -6   3 -4.0755 3.65996   2
  -6  -6   3 -6.4051 4.70416   1
   5   6  -3 -2.3318 2.42770   4
  -5  -6   3 2.26709 4.10788   1
  -5  -6   3 5.46132 3.34989   2
   4   6  -3 16.3938 3.00865   4
  -4  -6   3 18.4556 4.16160   1
  -4  -6   3 19.6639 3.60871   2
   3   6  -3 34.8692 4.58143   1
   3   6  -3 30.3983 2.69510   4
   2   6  -3 6.47011 2.25424   1
   2   6  -3 7.72444 1.51056   4
  -2  -6   3 6.70788 1.39866   3
  -2  -6   3 5.38828 0.85305   3
  -2  -6   3 6.27387 2.19956   2
   1   6  -3 2.00199 1.06832   4
   1   6  -3 2.80103 1.68732   1
  -1  -6   3 1.50690 0.91491   3
  -1  -6   3 1.00838 1.16116   2
   0   6  -3 51.9956 3.09120   1
   0   6  -3 49.6086 2.68170   4
   0  -6   3 53.4625 2.74262   2
   0  -6   3 51.7980 2.49440   3
  -1   6  -3 146.185 5.11746   1
  -1   6  -3 149.768 5.23393   4
   1  -6   3 149.959 5.20234   2
   1  -6   3 149.832 5.11832   3
  -2   6  -3 169.139 5.37969   1
  -2   6  -3 165.010 5.94064   4
   2  -6   3 175.932 5.96797   3
   2  -6   3 168.557 5.52373   2
  -3   6  -3 43.8402 2.32137   1
  -3   6  -3 43.7930 2.85801   4
   3  -6   3 47.4083 2.85487   3
   3  -6   3 46.2974 2.32408   2
  -4   6  -3 8.80247 1.60721   1
  -4   6  -3 9.53898 1.81123   4
   4  -6   3 6.24758 1.76304   3
   4  -6   3 7.38435 1.35527   2
  -5   6  -3 15.0968 2.84909   4
  -5   6  -3 15.6606 2.13275   1
   5  -6   3 13.1903 1.59266   2
   5  -6   3 11.7835 2.42528   3
  -6   6  -3 28.1851 3.37585   4
  -6   6  -3 40.1445 3.23840   1
   6  -6   3 31.3717 3.51612   3
   6  -6   3 35.4699 2.12044   2
  -7   6  -3 32.7018 3.92540   4
  -7   6  -3 33.7570 3.88242   1
   7  -6   3 30.2019 3.42347   3
   7  -6   3 34.1985 2.40778   2
  -8   6  -3 13.4791 3.45603   1
  -8   6  -3 13.5910 4.35736   4
   8  -6   3 14.2446 2.21210   2
   8  -6   3 11.2360 3.01496   3
  -9   6  -3 5.06287 5.49824   1
  -9   6  -3 3.29296 4.11730   4
   9  -6   3 5.00117 3.56422   3
 -10   6  -3 3.13914 4.67703   4
 -10   6  -3 -1.7012 5.63658   1
  10  -6   3 1.64328 3.70034   3
 -11   6  -3 14.0411 7.27231   1
 -11   6  -3 -4.4774 4.53557   4
  11  -6   3 -1.0926 4.33018   3
 -12   6  -3 -4.8992 5.65157   4
 -12   6  -3 -11.643 8.22987   1
  12  -6   3 -5.4006 6.50258   3
   9   5  -3 7.69051 3.86823   4
  -9  -5   3 -0.6496 6.46402   2
  -9  -5   3 3.98176 7.78517   1
   8   5  -3 5.57495 3.35206   4
  -8  -5   3 1.25199 5.29274   1
  -8  -5   3 4.43094 5.00020   2
   7   5  -3 1.06177 2.52801   4
  -7  -5   3 -2.2079 3.96955   2
  -7  -5   3 -2.5243 4.42752   1
   6   5  -3 -1.3208 2.20753   4
  -6  -5   3 -8.4376 4.25887   1
  -6  -5   3 0.95916 2.95129   2
  -5  -5   3 22.7152 4.22819   1
  -5  -5   3 17.4977 3.35972   2
  -4  -5   3 39.1202 3.34299   2
  -4  -5   3 44.7374 4.79193   1
   3   5  -3 66.8367 4.05917   1
   3   5  -3 65.5816 3.13447   4
  -3  -5   3 66.0976 4.22123   1
   2   5  -3 45.2752 2.29480   4
   2   5  -3 43.1849 3.14254   1
  -2  -5   3 38.1607 1.59825   3
  -2  -5   3 43.9377 2.09358   3
  -2  -5   3 44.6537 2.71236   2
   1   5  -3 17.6573 1.97518   1
   1   5  -3 16.5474 1.51394   4
  -1  -5   3 16.4114 1.23281   3
  -1  -5   3 17.6258 1.77772   2
   0   5  -3 10.7314 1.69819   1
   0   5  -3 9.47910 1.37986   4
   0  -5   3 8.31606 1.35779   2
   0  -5   3 10.5731 1.26089   3
  -1   5  -3 360.805 10.4793   4
  -1   5  -3 361.073 10.2207   1
   1  -5   3 365.502 10.2880   3
   1  -5   3 369.391 10.2975   2
  -2   5  -3 218.628 6.95814   4
  -2   5  -3 218.682 6.41826   1
   2  -5   3 211.924 6.39469   2
   2  -5   3 214.031 6.90017   3
  -3   5  -3 105.026 4.33513   4
  -3   5  -3 104.034 3.70210   1
   3  -5   3 105.187 4.26388   3
   3  -5   3 109.397 3.63362   2
  -4   5  -3 25.6310 2.36504   4
  -4   5  -3 24.2924 1.95730   1
   4  -5   3 19.7298 2.11855   3
   4  -5   3 23.1133 1.51294   2
  -5   5  -3 6.72505 1.86362   1
  -5   5  -3 6.31228 1.80805   4
   5  -5   3 6.32522 1.20268   2
   5  -5   3 4.16349 1.57591   3
  -6   5  -3 65.7381 4.66528   4
  -6   5  -3 72.6114 4.00167   1
   6  -5   3 64.8091 4.21942   3
   6  -5   3 65.7744 2.73986   2
  -7   5  -3 31.1911 3.61787   1
  -7   5  -3 23.4086 4.08039   4
   7  -5   3 22.8284 2.06682   2
  -8   5  -3 11.0834 3.83812   1
  -8   5  -3 3.87227 3.69842   4
   8  -5   3 9.94076 3.23239   3
   8  -5   3 10.9632 1.88877   2
  -9   5  -3 -0.1511 3.86569   4
  -9   5  -3 5.72203 4.60073   1
   9  -5   3 2.67360 3.34021   3
 -10   5  -3 4.78732 5.66157   1
 -10   5  -3 -6.1682 3.98464   4
  10  -5   3 -1.0545 3.66333   3
 -11   5  -3 4.06402 6.66004   1
 -11   5  -3 -9.4686 4.65686   4
  11  -5   3 1.20537 4.43701   3
 -12   5  -3 5.38626 5.64266   4
 -12   5  -3 -9.1699 8.22670   1
  12  -5   3 -6.9884 5.26110   3
 -10  -4   3 -5.7889 6.86267   2
   9   4  -3 8.64572 3.98922   4
  -9  -4   3 -4.0435 6.44452   1
  -9  -4   3 11.9836 5.72580   2
   8   4  -3 6.32331 3.06476   4
  -8  -4   3 -3.5391 4.41629   1
  -8  -4   3 2.12453 4.25807   2
   7   4  -3 5.82720 2.64472   4
  -7  -4   3 -3.8021 3.62052   1
  -7  -4   3 -1.0164 3.39924   2
   6   4  -3 1.10437 2.42182   4
  -6  -4   3 -3.4962 2.57541   2
  -6  -4   3 0.17944 3.06021   1
  -5  -4   3 38.4757 3.91773   2
   4   4  -3 90.8013 3.69128   4
  -4  -4   3 95.8509 4.64174   2
  -4  -4   3 98.0891 5.49352   1
   3   4  -3 163.845 5.29461   4
  -3  -4   3 163.859 6.03725   2
  -3  -4   3 159.726 6.40092   1
   2   4  -3 133.174 4.30160   4
   2   4  -3 127.727 3.91072   3
   2   4  -3 130.842 5.24863   1
  -2  -4   3 128.821 4.85726   2
  -2  -4   3 129.102 3.70794   3
   1   4  -3 29.7894 2.15836   1
   1   4  -3 28.6282 1.64205   4
   1   4  -3 31.4733 1.83780   3
  -1  -4   3 32.4590 1.45581   3
  -1  -4   3 34.4848 2.03783   2
   0   4  -3 18.7017 1.43325   4
   0   4  -3 22.1273 1.77130   1
   0  -4   3 21.2864 1.57169   2
   0  -4   3 21.2216 1.39819   3
  -1   4  -3 640.344 17.1505   4
  -1   4  -3 640.364 16.8937   1
   1  -4   3 643.555 17.0117   3
   1  -4   3 644.649 16.8601   2
  -2   4  -3 388.629 10.5811   1
  -2   4  -3 382.446 11.0737   4
   2  -4   3 396.796 10.4420   2
   2  -4   3 386.312 11.0280   3
  -3   4  -3 248.902 7.79337   4
  -3   4  -3 242.104 7.19078   1
  -3   4  -3 235.074 7.16647   2
   3  -4   3 249.323 7.74671   3
   3  -4   3 247.549 6.76060   2
  -4   4  -3 21.0901 1.71455   2
  -4   4  -3 19.9961 2.16852   4
   4  -4   3 20.9388 1.17497   2
   4  -4   3 18.3095 1.90756   3
  -5   4  -3 -0.5905 1.53761   4
  -5   4  -3 2.50138 1.67106   1
   5  -4   3 -0.1330 1.31438   2
   5  -4   3 1.65556 0.83893   2
   5  -4   3 0.88776 1.44535   3
  -6   4  -3 82.4889 4.28664   1
  -6   4  -3 63.6929 4.84904   4
   6  -4   3 72.9625 3.89196   3
   6  -4   3 66.1390 3.10192   2
   6  -4   3 72.2090 2.68114   2
  -7   4  -3 13.1709 3.14305   4
  -7   4  -3 19.3928 3.40797   1
   7  -4   3 17.2603 3.08577   3
   7  -4   3 14.8355 1.77647   2
  -8   4  -3 12.4422 3.70155   1
  -8   4  -3 5.83121 3.37916   4
   8  -4   3 13.9772 2.10115   2
   8  -4   3 9.86963 3.02006   3
  -9   4  -3 1.35846 4.64242   1
  -9   4  -3 0.70591 3.79117   4
   9  -4   3 4.59282 3.19370   3
 -10   4  -3 4.79429 5.23879   1
 -10   4  -3 0.09945 4.36207   4
  10  -4   3 -0.7903 3.51204   3
 -11   4  -3 0.49850 4.49158   4
 -11   4  -3 1.37692 7.04241   1
  11  -4   3 -6.7604 4.43220   3
  10   3  -3 6.62294 4.36735   4
 -10  -3   3 5.49062 6.31948   2
 -10  -3   3 -1.8836 6.44841   1
   9   3  -3 4.96806 3.57554   4
  -9  -3   3 1.83323 5.10050   1
  -9  -3   3 1.92056 4.97911   2
   8   3  -3 3.15955 2.98521   4
  -8  -3   3 5.50447 4.15884   1
  -8  -3   3 2.17398 3.90518   2
   7   3  -3 0.33546 2.53391   4
  -7  -3   3 3.96677 3.13863   2
  -7  -3   3 1.03259 4.35293   1
   6   3  -3 3.39920 2.21251   4
  -6  -3   3 0.90059 3.35339   1
  -6  -3   3 1.10890 2.40288   2
   5   3  -3 26.5226 1.29195   3
   5   3  -3 32.9001 2.24480   4
  -5  -3   3 25.2469 3.04786   2
  -5  -3   3 30.1713 3.98552   1
   4   3  -3 198.396 5.25301   3
   4   3  -3 199.982 6.20402   4
  -4  -3   3 188.531 5.45572   3
  -4  -3   3 196.383 7.39682   1
  -4  -3   3 204.981 7.06870   2
   3   3  -3 131.070 3.69030   3
   3   3  -3 133.487 4.31347   4
  -3  -3   3 131.791 5.30435   1
  -3  -3   3 129.808 4.95776   2
   2   3  -3 10.1735 0.97698   3
   2   3  -3 9.32770 0.95380   4
   2   3  -3 10.1716 1.58587   1
  -2  -3   3 10.3806 0.85836   3
  -2  -3   3 7.37697 1.26893   2
   1   3  -3 85.8486 3.42027   1
   1   3  -3 76.6438 2.69192   3
   1   3  -3 86.0855 2.83061   4
  -1  -3   3 85.5713 2.63180   3
  -1  -3   3 81.6694 3.16145   2
   0   3  -3 11.7826 1.16884   1
   0   3  -3 11.1786 1.09227   4
   0  -3   3 12.1919 0.98220   3
   0  -3   3 11.7953 1.07751   2
  -1   3  -3 263.598 7.59162   4
  -1   3  -3 263.067 7.43484   1
  -1   3  -3 264.092 7.50620   2
   1  -3   3 270.513 7.31308   2
   1  -3   3 263.377 7.51079   3
  -2   3  -3 491.205 13.8430   4
  -2   3  -3 498.070 13.0657   2
  -2   3  -3 508.728 13.4837   1
   2  -3   3 515.990 13.7860   3
   2  -3   3 520.532 13.0808   2
  -3   3  -3 70.2829 2.40049   2
  -3   3  -3 74.2675 3.01267   1
  -3   3  -3 76.3654 3.36695   4
   3  -3   3 70.9661 3.10746   3
  -4   3  -3 18.4204 1.95925   1
  -4   3  -3 22.9056 1.93955   4
   4  -3   3 19.3945 1.29376   2
   4  -3   3 18.3918 0.96973   2
   4  -3   3 19.5502 1.80521   3
  -5   3  -3 0.97923 1.63483   4
  -5   3  -3 0.56781 1.63585   1
   5  -3   3 2.44314 1.12556   2
   5  -3   3 1.69941 1.19450   3
  -6   3  -3 47.7849 3.38408   1
   6  -3   3 41.1236 2.07168   2
   6  -3   3 47.3216 3.08437   3
   6  -3   3 38.8934 2.14093   2
  -7   3  -3 23.9571 4.04591   4
  -7   3  -3 33.0216 4.46240   1
   7  -3   3 27.1181 3.20660   3
   7  -3   3 24.9003 2.09284   2
   7  -3   3 23.1388 2.79353   2
  -8   3  -3 9.58931 3.73444   1
  -8   3  -3 14.2041 4.00807   4
  -9   3  -3 6.57823 4.50666   1
  -9   3  -3 4.96901 3.84675   4
   9  -3   3 -3.5337 2.91599   3
 -10   3  -3 1.03422 3.86477   4
 -10   3  -3 -1.6621 5.47349   1
  10  -3   3 -1.8422 3.65318   3
 -11   3  -3 3.36437 6.33171   1
  11  -3   3 -12.524 4.32594   3
  11   2  -3 5.50270 4.73898   4
 -11  -2   3 4.94273 6.58425   2
 -11  -2   3 -4.3368 6.30148   1
  10   2  -3 4.14145 4.15513   4
 -10  -2   3 0.36335 5.61849   1
 -10  -2   3 9.67991 6.02941   2
   9   2  -3 6.12711 3.51396   4
  -9  -2   3 4.39615 4.81534   1
  -9  -2   3 4.21429 4.34797   2
   8   2  -3 13.1202 3.19078   4
  -8  -2   3 11.9620 3.88888   2
  -8  -2   3 9.94221 4.59911   1
   7   2  -3 6.04247 2.52508   4
   7   2  -3 8.39767 1.94623   3
  -7  -2   3 5.17880 3.61724   1
  -7  -2   3 8.93362 5.58996   2
   6   2  -3 0.86720 1.60337   4
  -6  -2   3 -3.2980 2.53755   1
  -6  -2   3 -1.1218 1.44601   3
   5   2  -3 42.5970 2.43027   4
   5   2  -3 37.6645 2.00982   3
  -5  -2   3 38.0972 2.92647   2
  -5  -2   3 40.8948 3.35480   1
  -5  -2   3 40.2942 2.27557   3
   4   2  -3 146.923 4.64752   4
   4   2  -3 134.590 3.99866   3
  -4  -2   3 132.204 5.51453   1
  -4  -2   3 136.170 5.18417   2
  -4  -2   3 138.260 4.34099   3
   3   2  -3 378.844 9.98364   3
   3   2  -3 395.724 10.4426   4
  -3  -2   3 388.454 10.2215   3
  -3  -2   3 395.378 11.5487   1
  -3  -2   3 370.125 11.1327   2
   2   2  -3 621.700 16.7663   1
   2   2  -3 585.413 15.4497   3
   2   2  -3 614.365 15.6384   4
  -2  -2   3 626.544 15.5726   3
  -2  -2   3 592.100 16.3444   2
   1   2  -3 278.122 8.09380   1
   1   2  -3 280.939 7.35063   4
   1   2  -3 260.952 7.34603   3
  -1  -2   3 281.208 7.91167   2
  -1  -2   3 274.288 7.31472   4
  -1  -2   3 279.435 7.34318   3
   0   2  -3 21.1515 1.15120   2
   0   2  -3 20.3719 1.30528   3
   0   2  -3 19.9362 1.26480   1
   0   2  -3 21.6801 1.19451   4
   0  -2   3 21.8581 1.26870   2
   0  -2   3 18.5302 1.05332   4
   0  -2   3 21.7622 1.12163   3
  -1   2  -3 245.163 6.55094   2
  -1   2  -3 245.234 7.03732   4
  -1   2  -3 251.726 6.95722   1
   1  -2   3 247.477 6.94965   3
   1  -2   3 248.052 6.66074   2
   1  -2   3 246.297 7.28749   4
  -2   2  -3 399.889 10.1045   2
  -2   2  -3 412.691 10.9304   1
  -2   2  -3 388.425 11.0995   4
   2  -2   3 397.978 10.1170   2
   2  -2   3 391.812 10.8900   3
  -3   2  -3 285.927 8.40784   1
  -3   2  -3 276.750 8.54497   4
   3  -2   3 286.961 8.30777   3
  -4   2  -3 89.0843 3.86612   4
  -4   2  -3 81.9896 3.76862   1
   4  -2   3 80.1230 3.42826   3
  -5   2  -3 2.29543 1.73551   1
  -5   2  -3 1.13937 1.63841   4
   5  -2   3 2.08619 0.86016   2
   5  -2   3 4.04651 1.42838   3
   5  -2   3 1.56022 0.79507   2
  -6   2  -3 13.7481 2.79193   1
  -6   2  -3 11.1488 2.82442   4
   6  -2   3 13.6917 1.56751   2
   6  -2   3 12.3446 1.45759   2
   6  -2   3 16.3122 2.16498   3
  -7   2  -3 30.9983 4.16856   4
  -7   2  -3 32.7700 3.97815   1
   7  -2   3 38.9306 3.22052   3
  -8   2  -3 15.7507 4.00427   4
  -8   2  -3 22.5313 4.68421   1
   8  -2   3 15.2904 3.03743   3
  -9   2  -3 6.01848 4.82176   1
   9  -2   3 4.20189 3.23855   3
   9  -2   3 5.98740 3.94986   4
 -10   2  -3 -2.1931 5.31933   1
  10  -2   3 2.70124 3.93927   3
  10  -2   3 1.53879 4.59354   4
 -11   2  -3 8.68169 6.40449   1
  11  -2   3 4.26938 5.24519   4
  11  -2   3 -9.8884 4.37758   3
  11   1  -3 5.45263 4.49380   4
 -11  -1   3 -2.5233 6.14334   2
 -11  -1   3 -2.6721 6.27506   1
  10   1  -3 6.37496 3.77799   4
 -10  -1   3 -1.5027 4.86473   1
 -10  -1   3 4.37291 4.70611   2
   9   1  -3 10.2202 3.65447   4
  -9  -1   3 15.9118 5.06025   2
  -9  -1   3 9.63688 4.74270   1
   8   1  -3 20.0615 2.92934   3
   8   1  -3 16.4639 4.13219   4
  -8  -1   3 17.8244 4.29233   1
  -8  -1   3 29.1238 4.47755   2
   7   1  -3 4.14049 2.10737   4
  -7  -1   3 2.71242 3.02055   1
  -7  -1   3 3.94036 3.02053   2
  -7  -1   3 6.08658 2.05078   3
   6   1  -3 1.92570 1.45385   4
  -6  -1   3 0.51713 2.06838   2
  -6  -1   3 1.41923 1.61841   3
   5   1  -3 19.7252 1.84543   4
  -5  -1   3 17.3159 1.99071   3
  -5  -1   3 22.4570 2.37364   2
  -5  -1   3 19.3334 2.66210   1
   4   1  -3 545.881 14.6517   4
  -4  -1   3 556.304 14.6693   3
  -4  -1   3 546.419 15.4615   2
  -4  -1   3 547.329 15.7274   1
   3   1  -3 1435.79 35.2804   4
   3   1  -3 1332.74 35.1167   3
  -3  -1   3 1405.45 35.3642   3
  -3  -1   3 1422.45 36.1421   2
   2   1  -3 467.165 11.8281   4
   2   1  -3 455.656 12.8033   1
   2   1  -3 445.903 11.9389   3
  -2  -1   3 470.146 11.9576   4
  -2  -1   3 470.401 12.0674   3
  -2  -1   3 466.975 12.6632   2
   1   1  -3 1297.55 35.0324   3
   1   1  -3 1469.59 34.8619   4
   1   1  -3 1462.29 35.6472   1
   1   1  -3 1282.93 35.4143   2
  -1  -1   3 1430.52 35.5201   2
  -1  -1   3 1438.58 35.1254   3
  -1  -1   3 1420.49 34.8032   4
   0   1  -3 28.0152 1.26008   4
   0   1  -3 27.7486 1.45023   1
   0   1  -3 29.7786 1.32582   2
   0  -1   3 28.8606 1.28068   3
   0  -1   3 28.8391 1.23094   4
   0  -1   3 27.9328 1.35582   2
   0  -1   3 27.8770 1.42851   1
  -1   1  -3 129.639 4.07555   1
  -1   1  -3 129.997 3.54007   2
  -1   1  -3 133.702 4.09507   4
   1  -1   3 133.071 3.61479   2
   1  -1   3 125.314 4.07448   4
   1  -1   3 132.150 3.95705   3
  -2   1  -3 1181.18 29.6978   4
  -2   1  -3 1138.82 29.5782   1
   2  -1   3 1132.04 29.3093   3
  -3   1  -3 673.921 18.4127   4
  -3   1  -3 692.059 18.4297   1
   3  -1   3 669.335 17.8623   3
  -4   1  -3 48.4158 1.77296   2
  -4   1  -3 52.7106 3.01116   1
  -4   1  -3 49.8319 2.90418   4
   4  -1   3 51.0938 2.49838   3
   4  -1   3 49.0283 1.61705   2
  -5   1  -3 1.43496 1.65948   4
  -5   1  -3 0.08891 1.01519   2
  -5   1  -3 -0.9945 1.59926   1
   5  -1   3 -1.3100 0.99596   3
   5  -1   3 0.00782 0.84059   2
  -6   1  -3 10.4028 3.50774   1
  -6   1  -3 17.0617 3.19714   4
  -6   1  -3 14.5992 1.83017   2
   6  -1   3 16.9501 2.16563   3
  -7   1  -3 18.3846 3.76666   1
  -7   1  -3 18.2868 2.41455   2
   7  -1   3 14.7312 3.10502   4
   7  -1   3 24.0516 2.83279   3
  -8   1  -3 12.5561 2.82359   2
  -8   1  -3 10.0561 4.26471   1
   8  -1   3 12.0682 2.87879   3
   8  -1   3 7.29557 3.27606   4
  -9   1  -3 4.33822 4.57021   1
   9  -1   3 4.40829 3.97423   4
   9  -1   3 -2.4441 6.73525   3
 -10   1  -3 0.29876 5.62731   1
  10  -1   3 -7.1606 4.01390   4
  10  -1   3 0.28405 3.79052   3
 -11   1  -3 -11.028 6.85235   1
  11  -1   3 0.79533 4.99181   4
  11   0  -3 -1.6854 4.58960   4
 -11   0   3 0.63473 6.14189   2
 -11   0   3 0.43113 5.60859   1
  10   0  -3 -0.7566 3.35588   4
 -10   0   3 -4.5033 4.35832   2
 -10   0   3 -2.3881 4.53388   1
   9   0  -3 17.2575 3.24364   3
   9   0  -3 21.3733 3.86567   4
  -9   0   3 21.5456 4.93578   1
  -9   0   3 17.1586 4.26549   2
   8   0  -3 29.4890 3.55965   4
  -8   0   3 32.1279 4.55657   2
  -8   0   3 28.0017 4.46432   1
  -8   0   3 28.8407 3.61717   3
   7   0  -3 29.1369 2.70527   4
  -7   0   3 26.1485 3.99720   1
  -7   0   3 31.6721 3.66614   2
  -7   0   3 24.5369 3.15132   3
   6   0  -3 4.68578 1.57364   4
  -6   0   3 1.53926 1.80758   3
  -6   0   3 0.81411 1.70390   2
  -6   0   3 3.25914 2.11604   1
   5   0  -3 13.0693 1.73995   4
  -5   0   3 17.2281 2.48939   2
  -5   0   3 13.1214 2.21733   1
  -5   0   3 12.9417 1.86797   3
   4   0  -3 1152.01 29.5868   4
  -4   0   3 1160.93 30.4653   1
  -4   0   3 1157.12 30.3696   2
  -4   0   3 1155.78 29.8376   3
   3   0  -3 551.821 15.0585   1
   3   0  -3 539.468 14.1233   4
   3   0  -3 536.833 14.2104   4
  -3   0   3 559.197 15.0037   2
  -3   0   3 544.373 14.4934   3
   2   0  -3 284.765 7.20771   4
   2   0  -3 290.452 7.28365   4
   2   0  -3 288.911 8.10995   1
   2   0  -3 254.376 7.55628   3
  -2   0   3 284.801 7.74303   3
  -2   0   3 288.113 8.12595   2
   1   0  -3 53.8988 2.14211   2
   1   0  -3 52.2809 1.86546   3
   1   0  -3 54.2818 2.07377   1
  -1   0   3 55.6389 2.18467   2
  -1   0   3 47.5953 2.04963   1
  -1   0   3 53.9697 1.93459   3
   0   0  -3 180.745 5.21088   1
   0   0  -3 190.251 4.97210   4
   0   0  -3 183.837 5.06822   2
   0   0   3 188.266 5.00487   4
   0   0   3 169.678 5.18698   1
   0   0   3 186.856 5.06114   3
   0   0   3 153.382 5.73858   2
  -1   0  -3 50.4217 2.05322   4
  -1   0  -3 50.4726 2.16584   1
  -1   0  -3 49.3128 1.67163   2
  -1   0  -3 50.1782 1.60847   2
   1   0   3 48.9000 1.84256   3
   1   0   3 47.7577 2.06805   4
  -2   0  -3 2193.71 56.1577   1
  -2   0  -3 2266.19 56.0424   4
  -2   0  -3 2268.06 55.0083   2
   2   0   3 2132.54 55.0534   2
   2   0   3 2236.41 55.5668   3
  -3   0  -3 155.629 5.35284   4
  -3   0  -3 151.391 4.36418   2
  -3   0  -3 156.426 5.58066   1
   3   0   3 159.934 4.82160   3
   3   0   3 153.833 4.25516   2
  -4   0  -3 43.1780 2.91539   1
  -4   0  -3 47.0251 2.04182   2
   4   0   3 48.1237 2.86730   4
   4   0   3 43.3536 1.79334   2
   4   0   3 47.8951 2.33474   3
  -5   0  -3 -2.1533 1.83494   1
  -5   0  -3 0.89000 1.25601   2
   5   0   3 2.38781 1.19795   3
   5   0   3 1.93917 1.50530   4
  -6   0  -3 11.8268 2.06306   2
  -6   0  -3 15.8294 2.80114   1
   6   0   3 6.77689 2.72140   4
   6   0   3 12.9071 1.92580   3
  -7   0  -3 3.92632 3.46070   1
  -7   0  -3 3.00651 2.36424   2
   7   0   3 1.25421 1.95991   3
   7   0   3 8.86419 2.86769   4
  -8   0  -3 9.95508 4.82561   1
  -8   0  -3 6.64392 3.00933   2
   8   0   3 9.84465 2.42861   3
   8   0   3 7.39847 3.49364   4
  -9   0  -3 -1.6360 4.55406   1
   9   0   3 -1.0460 3.31207   4
   9   0   3 -4.0294 2.98704   3
 -10   0  -3 10.3697 6.13133   1
  10   0   3 5.52862 4.45480   4
  12  -1  -3 1.56180 5.06092   4
 -12   1   3 -14.417 6.41867   2
 -12   1   3 -1.8589 6.96435   1
  11  -1  -3 5.45422 4.00332   4
 -11   1   3 0.52819 5.72040   1
 -11   1   3 -0.8553 5.42328   2
  10  -1  -3 10.5800 4.25613   3
  10  -1  -3 0.95178 3.56964   4
 -10   1   3 0.90606 4.32139   2
 -10   1   3 -3.9460 4.66865   1
   9  -1  -3 28.7693 3.99538   3
   9  -1  -3 15.0686 3.47002   4
  -9   1   3 17.8044 4.70846   1
  -9   1   3 26.8152 4.64808   2
  -8   1   3 54.1238 4.94310   2
  -8   1   3 56.5279 3.99347   3
   7  -1  -3 66.2713 3.81898   4
  -7   1   3 65.7169 4.10445   2
  -7   1   3 65.1231 4.42099   1
  -7   1   3 65.2895 4.02387   3
   6  -1  -3 0.64318 1.36939   4
  -6   1   3 0.71538 1.89930   1
  -6   1   3 -1.0323 1.48861   3
  -6   1   3 3.31636 1.73083   2
  -5   1   3 70.8950 3.52550   2
  -5   1   3 71.2381 3.63321   1
  -5   1   3 74.6688 3.22832   4
  -5   1   3 74.2537 3.50525   3
   4  -1  -3 854.305 22.8195   1
  -4   1   3 849.766 22.7863   2
  -4   1   3 855.605 22.5363   3
  -4   1   3 849.010 22.0197   4
   3  -1  -3 1340.76 33.9689   4
   3  -1  -3 1350.97 34.6431   1
  -3   1   3 1367.59 34.0301   4
  -3   1   3 1351.35 34.5612   3
  -3   1   3 1345.74 34.7985   2
   2  -1  -3 684.826 16.9215   4
   2  -1  -3 704.289 17.6252   1
  -2   1   3 695.151 17.0094   4
  -2   1   3 617.811 17.5412   1
  -2   1   3 697.266 17.9120   2
  -2   1   3 661.456 17.6380   3
   1  -1  -3 332.879 8.73529   1
   1  -1  -3 324.939 8.31630   4
   1  -1  -3 321.337 8.95041   2
  -1   1   3 303.941 8.70379   1
  -1   1   3 331.725 8.26731   4
  -1   1   3 328.354 8.93325   2
  -1   1   3 333.135 8.80986   3
   0  -1  -3 58.0376 2.22005   3
   0  -1  -3 60.9110 2.24288   1
   0  -1  -3 61.8968 2.16980   2
   0  -1  -3 60.3543 2.17535   4
   0   1   3 60.9108 2.13720   3
   0   1   3 60.9608 2.05905   4
   0   1   3 54.8274 2.18645   2
  -1  -1  -3 95.8184 3.54961   1
  -1  -1  -3 103.247 2.99872   2
   1   1   3 100.001 3.40757   4
   1   1   3 95.1993 3.07999   2
   1   1   3 100.408 3.06761   3
  -2  -1  -3 1255.21 32.4508   1
  -2  -1  -3 1247.72 31.2956   2
   2   1   3 1195.51 31.3490   2
   2   1   3 1250.49 31.4889   3
   2   1   3 1285.10 32.1963   4
  -3  -1  -3 81.3610 2.82651   2
  -3  -1  -3 84.8277 3.85279   1
   3   1   3 86.6149 2.98116   3
   3   1   3 82.1050 2.81606   2
   3   1   3 86.8267 3.66683   4
  -4  -1  -3 62.2326 3.83366   1
  -4  -1  -3 65.6714 2.71647   2
   4   1   3 67.8135 3.43269   4
   4   1   3 66.3947 2.66417   3
  -5  -1  -3 3.89926 1.54922   2
  -5  -1  -3 2.97732 2.48627   1
   5   1   3 -2.0652 2.19821   4
   5   1   3 2.52847 1.19849   3
  -6  -1  -3 4.41877 3.12662   1
  -6  -1  -3 6.10398 2.22551   2
   6   1   3 5.25597 2.76888   4
   6   1   3 4.98704 1.62734   3
  -7  -1  -3 2.81667 2.65622   2
  -7  -1  -3 3.22051 3.71036   1
   7   1   3 2.94815 1.87487   3
   7   1   3 7.42799 3.06238   4
  -8  -1  -3 12.3063 3.56807   2
  -8  -1  -3 4.68983 4.06688   1
   8   1   3 8.76156 2.49089   3
   8   1   3 10.1863 3.38730   4
  -9  -1  -3 7.93492 5.45552   1
   9   1   3 -2.2327 3.64844   4
 -10  -1  -3 -3.7436 6.17991   1
  10   1   3 3.27608 4.32874   4
  12  -2  -3 1.66964 5.00773   4
 -12   2   3 -3.5371 6.27799   2
 -12   2   3 -4.0313 6.62445   1
  11  -2  -3 1.35930 4.70362   3
  11  -2  -3 -6.2838 3.65461   4
 -11   2   3 -5.3028 5.29514   1
 -11   2   3 5.31451 5.38630   2
  10  -2  -3 -4.5729 3.70545   3
  10  -2  -3 0.44309 3.72015   4
 -10   2   3 11.4872 5.14557   1
 -10   2   3 -0.2637 3.99115   2
  -9   2   3 25.7820 4.56709   1
  -9   2   3 29.7695 5.18625   2
  -8   2   3 67.2054 4.36608   4
  -8   2   3 77.2975 5.71805   1
  -8   2   3 72.2465 4.66222   3
  -7   2   3 116.299 4.83010   4
  -7   2   3 101.281 5.07654   2
  -7   2   3 105.446 5.18303   1
  -7   2   3 111.493 5.07589   3
  -6   2   3 29.8646 2.48110   4
  -6   2   3 25.9786 2.55695   2
  -6   2   3 28.0658 2.66877   1
  -6   2   3 25.6030 2.49212   3
  -5   2   3 50.5667 2.94105   3
  -5   2   3 51.2527 3.00252   1
  -5   2   3 50.2716 2.67342   4
  -5   2   3 53.3831 2.94453   2
   4  -2  -3 322.797 9.34589   1
  -4   2   3 321.620 9.58247   3
  -4   2   3 325.197 9.02392   4
  -4   2   3 319.997 9.63165   2
   3  -2  -3 1149.72 28.8664   1
   3  -2  -3 1136.30 28.4985   4
  -3   2   3 1155.61 29.3367   3
  -3   2   3 1052.52 28.9137   1
  -3   2   3 1145.83 29.3384   2
  -3   2   3 1139.67 28.6104   4
   2  -2  -3 527.171 13.4505   1
   2  -2  -3 516.965 14.0698   2
   2  -2  -3 516.752 13.1639   4
  -2   2   3 516.709 13.9111   3
  -2   2   3 512.247 13.5237   1
  -2   2   3 518.293 13.2790   4
   1  -2  -3 622.202 16.0090   2
   1  -2  -3 597.823 15.4173   4
   1  -2  -3 609.400 15.6095   1
  -1   2   3 606.981 15.8678   3
  -1   2   3 582.624 15.5922   1
  -1   2   3 606.660 15.3869   4
   0  -2  -3 371.957 10.3216   1
   0  -2  -3 376.989 10.1986   2
   0   2   3 386.567 10.1608   3
   0   2   3 377.855 10.0932   4
  -1  -2  -3 238.333 7.46833   1
  -1  -2  -3 250.430 6.89087   2
   1   2   3 245.385 7.18641   4
   1   2   3 256.678 6.89165   3
  -2  -2  -3 514.305 13.4480   2
  -2  -2  -3 504.008 14.4849   1
   2   2   3 513.224 13.3773   3
   2   2   3 512.105 14.0830   4
  -3  -2  -3 131.213 4.20102   2
  -3  -2  -3 132.517 5.36829   1
   3   2   3 124.036 3.96163   3
   3   2   3 125.467 4.77993   4
  -4  -2  -3 34.4449 3.02401   1
  -4  -2  -3 31.2656 2.18908   2
   4   2   3 31.2115 2.51644   4
   4   2   3 33.8162 1.93818   3
  -5  -2  -3 4.05282 1.89708   2
  -5  -2  -3 -4.8557 2.67502   1
   5   2   3 2.26734 2.19073   4
   5   2   3 4.36187 1.31622   3
  -6  -2  -3 -1.2385 2.15439   2
  -6  -2  -3 -2.2700 3.38726   1
   6   2   3 2.26397 2.56915   4
   6   2   3 1.28420 1.50806   3
  -7  -2  -3 6.96933 3.06629   2
  -7  -2  -3 2.31848 3.63856   1
   7   2   3 7.83718 2.12582   3
   7   2   3 6.90920 3.12955   4
  -8  -2  -3 2.75713 4.69887   1
  -8  -2  -3 2.24085 3.90673   2
   8   2   3 1.41333 3.57445   4
  -9  -2  -3 3.39353 6.06496   1
   9   2   3 -2.5549 3.53379   4
 -10  -2  -3 -2.2893 7.37999   1
  10   2   3 5.17584 4.79873   4
  12  -3  -3 5.51018 4.85212   4
  12  -3  -3 1.78941 5.63513   3
 -12   3   3 -4.8526 6.10497   1
 -12   3   3 -4.3740 5.92344   2
  11  -3  -3 -11.511 4.28993   4
  11  -3  -3 -8.6994 4.69326   3
 -11   3   3 -4.1604 4.75348   2
 -11   3   3 12.9572 5.83930   1
 -10   3   3 6.56083 4.00615   3
 -10   3   3 6.59493 4.22442   4
 -10   3   3 9.66663 4.60978   1
 -10   3   3 18.2402 4.34781   2
  -9   3   3 38.1734 4.72845   4
  -9   3   3 31.3455 4.44817   3
  -9   3   3 31.5798 4.57801   2
  -9   3   3 34.5221 5.41845   1
  -8   3   3 85.3546 4.93307   4
  -8   3   3 86.4559 5.12148   1
  -8   3   3 91.0016 5.16816   3
  -8   3   3 81.3156 4.87775   2
  -7   3   3 176.952 6.76002   1
  -7   3   3 176.796 6.95577   3
  -7   3   3 168.299 6.69722   2
  -7   3   3 172.848 6.51637   4
  -6   3   3 65.4707 3.60243   1
  -6   3   3 62.3655 3.31659   4
  -6   3   3 72.5540 3.83419   3
  -6   3   3 66.0246 3.64953   2
   5  -3  -3 11.6793 1.71080   1
  -5   3   3 13.7571 1.97076   2
  -5   3   3 12.0417 1.88136   3
  -5   3   3 10.4406 1.83049   4
   4  -3  -3 381.369 10.2761   1
   4  -3  -3 379.168 11.0352   2
  -4   3   3 358.145 10.9324   3
  -4   3   3 368.667 10.3283   4
   3  -3  -3 1048.77 26.0460   1
   3  -3  -3 1020.31 27.0095   2
  -3   3   3 1037.42 26.2382   4
  -3   3   3 1001.68 26.1941   1
  -3   3   3 1030.21 26.9726   3
   2  -3  -3 659.069 16.5913   1
   2  -3  -3 634.470 17.3616   2
  -2   3   3 643.304 16.6238   1
  -2   3   3 641.370 17.3427   3
  -2   3   3 661.505 16.6994   4
   1  -3  -3 225.111 6.25816   1
   1  -3  -3 212.292 6.52958   2
  -1   3   3 225.094 6.11313   4
  -1   3   3 223.105 6.51134   3
  -1   3   3 207.428 6.11601   1
   0  -3  -3 1.53405 0.97424   1
   0  -3  -3 -0.3242 0.67473   2
   0   3   3 0.72611 0.70111   3
   0   3   3 0.84915 0.62561   4
  -1  -3  -3 299.389 8.48414   2
  -1  -3  -3 294.291 9.11147   1
   1   3   3 307.119 8.38326   3
   1   3   3 311.756 8.74346   4
  -2  -3  -3 147.994 5.67821   1
  -2  -3  -3 148.323 4.76571   2
   2   3   3 145.636 5.12429   4
   2   3   3 156.868 4.61821   3
  -3  -3  -3 89.9488 3.56446   2
  -3  -3  -3 94.3518 4.50665   1
   3   3   3 94.1813 3.25479   3
   3   3   3 94.1830 3.98700   4
  -4  -3  -3 31.2279 4.03485   1
  -4  -3  -3 31.3547 2.57150   2
   4   3   3 28.4951 2.01174   3
   4   3   3 33.6421 2.93327   4
  -5  -3  -3 2.77829 3.56910   1
  -5  -3  -3 1.64742 1.88094   2
   5   3   3 0.82154 1.33612   3
   5   3   3 1.04711 2.42360   4
  -6  -3  -3 1.93127 2.63894   2
  -6  -3  -3 -0.1501 3.34463   1
   6   3   3 0.74772 2.38952   4
   6   3   3 4.30304 1.83901   3
  -7  -3  -3 -0.4999 4.74114   2
  -7  -3  -3 1.53410 4.11341   1
   7   3   3 4.14007 3.28299   4
  -8  -3  -3 4.87853 5.04684   1
  -8  -3  -3 8.43674 9.16344   2
   8   3   3 0.88047 3.41634   4
  -9  -3  -3 -5.4075 6.53590   1
   9   3   3 2.23686 4.50565   4
  12  -4  -3 6.10126 5.62493   3
  12  -4  -3 8.30162 5.66375   4
  12  -4  -3 6.09748 5.98324   2
 -12   4   3 -7.4554 5.91862   1
  11  -4  -3 -4.3093 4.71125   3
  11  -4  -3 -3.4194 4.72178   2
 -11   4   3 -3.6229 4.81885   1
 -11   4   3 2.72057 4.46582   4
 -10   4   3 2.70603 4.18180   4
 -10   4   3 16.3448 4.28798   2
 -10   4   3 5.99418 4.53124   3
 -10   4   3 7.93503 4.97728   1
  -9   4   3 -0.7328 3.18776   4
  -9   4   3 -1.3546 4.10216   1
  -9   4   3 -3.5525 3.55948   3
  -9   4   3 4.51545 3.32488   2
   8  -4  -3 109.675 5.49168   2
  -8   4   3 95.7281 5.33617   4
  -8   4   3 104.874 5.19976   1
  -8   4   3 108.001 6.10669   3
   7  -4  -3 105.189 5.10083   2
  -7   4   3 120.878 5.29545   4
  -7   4   3 109.262 5.29979   3
  -7   4   3 111.382 4.95645   1
   6  -4  -3 26.8909 2.11533   1
   6  -4  -3 24.5756 2.51366   2
  -6   4   3 24.8637 2.52066   4
  -6   4   3 27.0547 2.70929   3
   5  -4  -3 71.0617 3.47071   2
   5  -4  -3 71.4133 2.93686   1
  -5   4   3 70.2142 3.30933   4
  -5   4   3 73.4733 3.82563   3
   4  -4  -3 270.487 8.58353   2
   4  -4  -3 280.452 7.54260   1
   4  -4  -3 267.957 7.71264   1
  -4   4   3 284.016 8.84302   3
  -4   4   3 278.432 8.13584   4
   3  -4  -3 51.0834 2.65043   2
   3  -4  -3 44.5334 1.84151   1
  -3   4   3 48.1304 1.86142   1
  -3   4   3 44.1899 2.47201   3
  -3   4   3 48.5100 2.20950   4
   2  -4  -3 621.357 16.7618   2
   2  -4  -3 618.880 15.9273   1
  -2   4   3 613.002 15.8622   1
  -2   4   3 610.331 16.8187   3
  -2   4   3 622.585 16.1939   4
   1  -4  -3 175.713 5.61430   2
   1  -4  -3 174.702 5.40271   1
  -1   4   3 173.398 5.67143   3
  -1   4   3 176.527 5.27928   4
   0  -4  -3 9.13028 1.38818   1
   0  -4  -3 8.25361 1.29495   2
   0   4   3 7.64369 1.33593   3
   0   4   3 8.22940 1.17668   4
  -1  -4  -3 19.5416 2.22178   1
  -1  -4  -3 17.3850 1.50937   2
   1   4   3 17.7464 1.60934   3
   1   4   3 16.8879 1.47641   4
  -2  -4  -3 73.4847 3.87978   1
  -2  -4  -3 72.6771 3.06319   2
   2   4   3 74.7162 2.89378   3
   2   4   3 73.9626 3.29562   4
  -3  -4  -3 90.4413 4.82194   1
  -3  -4  -3 86.0041 3.74036   2
   3   4   3 88.8980 3.25956   3
   3   4   3 76.1224 5.08994   4
  -4  -4  -3 11.9335 4.02946   1
  -4  -4  -3 14.7556 2.33034   2
   4   4   3 11.3573 2.45318   4
   4   4   3 11.1062 1.57088   3
  -5  -4  -3 -1.3906 3.31745   1
  -5  -4  -3 -0.9647 2.31112   2
   5   4   3 0.81978 2.07820   4
   5   4   3 -1.1776 1.61757   3
  -6  -4  -3 -1.6943 4.06732   1
  -6  -4  -3 -1.2297 3.43282   2
   6   4   3 2.22264 2.67691   4
  -7  -4  -3 0.43245 4.24637   2
  -7  -4  -3 8.48750 5.20130   1
   7   4   3 1.56122 3.05055   4
  -8  -4  -3 8.51816 6.71476   1
  -8  -4  -3 3.52963 5.55171   2
   8   4   3 -0.9943 3.45212   4
   9   4   3 7.02140 4.20504   4
  13  -5  -3 2.05822 7.33414   3
  13  -5  -3 3.16910 6.42579   4
  13  -5  -3 -3.5900 6.08427   2
 -13   5   3 -13.606 7.92345   1
  12  -5  -3 -10.366 5.43874   3
  12  -5  -3 -6.1488 5.26914   2
 -12   5   3 -5.2422 6.05487   1
 -12   5   3 -4.8804 5.21078   4
  11  -5  -3 4.13941 4.43592   2
  11  -5  -3 3.35745 4.71369   3
 -11   5   3 -3.5979 5.12048   1
 -11   5   3 -0.1049 4.48731   4
  10  -5  -3 3.69531 3.89809   2
 -10   5   3 1.79753 4.36092   1
 -10   5   3 1.41569 3.88238   4
 -10   5   3 8.16730 4.62986   3
   9  -5  -3 4.01665 3.14334   2
  -9   5   3 -4.0916 3.29244   3
  -9   5   3 1.08910 2.98268   1
  -9   5   3 0.43727 3.43371   4
  -8   5   3 141.039 6.33087   4
  -8   5   3 127.665 7.63877   3
   7  -5  -3 87.7450 4.60443   2
   7  -5  -3 82.7118 3.81474   1
  -7   5   3 79.6967 4.37170   4
  -7   5   3 77.5989 5.35371   3
   6  -5  -3 31.0433 2.71172   2
   6  -5  -3 28.5269 2.12851   1
  -6   5   3 25.2802 2.85158   3
  -6   5   3 27.4739 2.70011   4
   5  -5  -3 1.57720 0.87629   1
   5  -5  -3 1.75547 1.45264   1
   5  -5  -3 0.39369 1.26892   2
  -5   5   3 1.74370 1.60337   3
  -5   5   3 -1.5640 1.30059   4
   4  -5  -3 62.2831 2.07400   1
   4  -5  -3 67.5331 3.33688   2
   4  -5  -3 62.4125 2.33239   1
  -4   5   3 61.1310 3.39947   3
  -4   5   3 62.2742 2.97536   4
   3  -5  -3 12.5455 1.60122   2
   3  -5  -3 14.1426 1.09249   1
  -3   5   3 15.7261 1.98026   3
  -3   5   3 12.6392 1.10943   1
  -3   5   3 14.5957 1.74595   4
   2  -5  -3 723.862 19.7289   2
   2  -5  -3 747.355 19.0070   1
  -2   5   3 758.067 19.3571   4
  -2   5   3 711.325 18.7712   1
  -2   5   3 724.453 19.8943   3
   1  -5  -3 191.340 6.09625   1
   1  -5  -3 187.422 6.22395   2
  -1   5   3 201.606 6.48118   3
  -1   5   3 197.964 6.01385   4
   0  -5  -3 15.2766 1.86457   2
   0  -5  -3 16.7450 2.08687   1
   0   5   3 15.0655 1.79797   3
   0   5   3 13.6856 1.43937   4
  -1  -5  -3 21.9914 2.53410   1
  -1  -5  -3 19.4527 1.78024   2
   1   5   3 20.0216 2.02815   3
   1   5   3 21.4696 1.78911   4
  -2  -5  -3 40.8351 3.60805   1
  -2  -5  -3 36.5671 2.37403   2
   2   5   3 39.0307 2.46917   3
  -3  -5  -3 48.4122 2.98636   2
  -3  -5  -3 51.3562 4.74640   1
   3   5   3 49.2496 2.70677   3
  -4  -5  -3 4.15801 2.43410   2
  -4  -5  -3 -2.6955 3.45761   1
   4   5   3 2.41329 1.66970   3
   4   5   3 -1.8611 1.98771   4
  -5  -5  -3 6.63432 4.35900   1
  -5  -5  -3 4.90866 3.06141   2
   5   5   3 1.79465 2.40460   4
  -6  -5  -3 -1.4422 4.16947   2
  -6  -5  -3 4.71169 4.77571   1
   6   5   3 -0.0654 2.76659   4
  -7  -5  -3 5.73821 6.27868   1
  -7  -5  -3 -3.6589 4.57840   2
   7   5   3 -2.8408 3.26342   4
  -8  -5  -3 0.06086 6.30214   2
  -8  -5  -3 2.57286 7.11638   1
   8   5   3 -3.2525 3.80159   4
  13  -6  -3 5.55228 6.75680   3
  13  -6  -3 8.49635 7.08457   1
 -13   6   3 1.24823 6.76172   4
  12  -6  -3 -3.7229 5.29848   2
  12  -6  -3 3.90663 5.41071   3
  12  -6  -3 1.25633 5.46496   1
 -12   6   3 8.51016 5.53463   4
  11  -6  -3 -4.6225 4.42093   2
 -11   6   3 -7.2822 5.15500   3
 -11   6   3 -9.5015 4.60753   4
  10  -6  -3 3.31460 3.81931   2
  10  -6  -3 6.15153 3.64897   1
 -10   6   3 0.40636 3.64222   4
 -10   6   3 2.23454 4.50301   3
   9  -6  -3 9.17056 6.53553   2
   9  -6  -3 19.1839 3.17861   1
  -9   6   3 13.5969 4.06212   3
  -9   6   3 18.9592 4.50127   4
   8  -6  -3 56.4703 3.53544   1
   8  -6  -3 63.4765 4.85671   2
  -8   6   3 66.0257 5.19093   4
  -8   6   3 60.9180 5.16097   3
   7  -6  -3 77.2018 3.50438   1
   7  -6  -3 85.7723 4.60867   2
  -7   6   3 80.3718 5.31285   3
  -7   6   3 84.5933 4.47827   4
   6  -6  -3 50.5683 2.21850   1
   6  -6  -3 58.1063 3.51422   2
   6  -6  -3 47.7764 2.64644   1
  -6   6   3 55.6150 3.56314   4
   5  -6  -3 1.22426 1.57937   2
  -5   6   3 -1.3543 1.51523   3
  -5   6   3 0.65211 1.59699   4
   4  -6  -3 47.4581 2.82930   2
  -4   6   3 52.1162 2.90011   4
  -4   6   3 46.9745 3.23144   3
   3  -6  -3 96.5341 4.04504   2
   3  -6  -3 92.8554 3.16341   1
  -3   6   3 94.0832 3.76693   4
  -3   6   3 92.8332 4.29449   3
  -3   6   3 96.9496 2.93368   1
   2  -6  -3 172.734 5.98347   2
   2  -6  -3 180.064 5.50515   1
  -2   6   3 172.526 6.25691   3
  -2   6   3 170.020 5.26303   1
  -2   6   3 174.023 5.73562   4
   1  -6  -3 130.647 4.73225   2
   1  -6  -3 127.336 4.82167   1
  -1   6   3 125.543 4.51357   4
  -1   6   3 124.127 4.95459   3
   0  -6  -3 4.10833 1.34059   2
   0  -6  -3 2.33155 1.95069   1
   0   6   3 3.36169 1.23163   4
   0   6   3 6.59974 1.75623   3
  -1  -6  -3 0.71090 1.40566   2
  -1  -6  -3 -0.2658 2.34377   1
   1   6   3 1.77753 1.67109   4
   1   6   3 1.72587 1.55933   3
  -2  -6  -3 14.8798 2.83574   2
  -2  -6  -3 13.6811 3.28205   1
   2   6   3 10.5844 2.54912   4
   2   6   3 14.4189 2.06436   3
  -3  -6  -3 15.9319 2.70634   2
  -3  -6  -3 13.1657 4.56741   1
   3   6   3 17.7247 2.56092   4
   3   6   3 18.1957 2.13470   3
  -4  -6  -3 7.06333 2.83378   2
  -4  -6  -3 1.82588 4.03821   1
   4   6   3 2.14111 2.22026   4
  -5  -6  -3 9.92012 5.08133   1
  -5  -6  -3 -1.3056 3.19736   2
   5   6   3 2.35309 2.72220   4
  -6  -6  -3 -0.8080 4.67164   2
  -6  -6  -3 8.16153 6.41580   1
   6   6   3 3.29877 2.98506   4
  -7  -6  -3 5.62171 11.4837   1
   7   6   3 -2.8366 3.22065   4
  13  -7  -3 -2.0112 7.38939   3
  13  -7  -3 -4.9582 6.37891   2
 -13   7   3 3.12961 6.90840   4
  12  -7  -3 2.97309 4.93844   2
  12  -7  -3 -7.6758 5.22270   3
 -12   7   3 2.13780 5.75931   4
  11  -7  -3 2.84562 4.11546   1
  11  -7  -3 0.03140 4.34136   2
 -11   7   3 6.29459 5.08477   4
 -11   7   3 -7.3372 5.30729   3
  10  -7  -3 0.11388 3.05991   1
  10  -7  -3 -1.2404 3.52019   2
 -10   7   3 1.95611 4.65854   4
 -10   7   3 2.01012 4.60266   3
   9  -7  -3 16.5394 2.73549   1
   9  -7  -3 19.0226 3.81147   2
  -9   7   3 19.6940 4.09293   4
  -9   7   3 12.3273 4.04285   3
   8  -7  -3 29.1717 4.84370   2
   8  -7  -3 25.9581 2.49360   1
  -8   7   3 28.9312 4.00392   4
  -8   7   3 25.9549 4.13664   3
   7  -7  -3 38.0893 2.00554   1
   7  -7  -3 34.2857 2.45770   1
   7  -7  -3 44.9006 3.80981   2
  -7   7   3 34.3316 4.17944   3
   6  -7  -3 32.5469 3.62295   2
  -6   7   3 31.5154 3.83515   3
  -6   7   3 29.8529 3.22889   4
   5  -7  -3 0.10561 1.57625   2
  -5   7   3 -0.2266 1.76652   4
  -5   7   3 -1.8904 1.92921   3
   4  -7  -3 6.92750 1.50106   2
  -4   7   3 5.88403 2.06913   3
  -4   7   3 5.47364 1.79629   4
   3  -7  -3 75.1975 3.62052   2
   3  -7  -3 71.9667 3.92513   1
  -3   7   3 81.6751 3.71293   4
  -3   7   3 83.5212 4.35806   3
  -3   7   3 80.8809 2.68863   1
   2  -7  -3 126.256 4.95019   2
   2  -7  -3 122.908 4.54860   1
  -2   7   3 122.679 5.33583   3
  -2   7   3 126.832 4.78465   4
   1  -7  -3 43.3255 3.23886   1
  -1   7   3 38.7837 2.72296   4
  -1   7   3 43.8898 3.15240   3
   0  -7  -3 8.09974 2.50000   1
   0  -7  -3 3.56009 1.92264   2
   0   7   3 4.83947 1.96158   4
   0   7   3 7.56915 2.14895   3
  -1  -7  -3 -1.1702 2.43942   1
  -1  -7  -3 -1.3022 1.86849   2
   1   7   3 1.35177 2.05374   3
   1   7   3 -1.1002 1.57828   4
  -2  -7  -3 3.94999 2.22214   2
  -2  -7  -3 8.82023 4.00284   1
   2   7   3 4.44990 2.25725   4
   2   7   3 11.2077 2.38108   3
  -3  -7  -3 5.83008 2.57298   2
  -3  -7  -3 10.0065 4.48335   1
   3   7   3 5.50943 2.46625   4
  -4  -7  -3 0.59540 5.09034   1
  -4  -7  -3 -0.2960 3.04637   2
   4   7   3 0.93370 2.43666   4
  -5  -7  -3 5.90062 3.94719   2
  -5  -7  -3 7.43337 6.33336   1
   5   7   3 -3.7253 2.63143   4
  -6  -7  -3 0.66001 4.94495   2
  -6  -7  -3 6.24728 7.45303   1
   6   7   3 -3.8350 3.53051   4
  12  -8  -3 1.33705 5.52680   2
  12  -8  -3 -0.5268 6.11337   3
 -12   8   3 1.55130 5.96948   4
  11  -8  -3 1.55359 4.75052   2
 -11   8   3 2.54661 5.05795   4
 -11   8   3 -0.1532 5.26041   3
  10  -8  -3 7.48232 3.91072   2
 -10   8   3 -0.6094 4.81363   3
 -10   8   3 6.61668 4.43712   4
   9  -8  -3 5.76273 3.58607   2
  -9   8   3 8.08387 3.98632   3
  -9   8   3 5.73525 3.80423   4
   8  -8  -3 22.8322 3.62692   2
  -8   8   3 13.8570 3.77648   4
  -8   8   3 14.1177 3.96034   3
   7  -8  -3 23.3787 3.40677   2
  -7   8   3 21.5939 3.81181   4
  -7   8   3 17.7989 4.07645   3
   6  -8  -3 21.1943 3.82615   2
  -6   8   3 15.9434 3.34650   3
  -6   8   3 16.0586 3.19556   4
   5  -8  -3 3.20876 2.25189   2
  -5   8   3 4.87624 2.55091   3
  -5   8   3 3.71703 2.53079   4
   4  -8  -3 19.5504 2.85099   2
  -4   8   3 13.2834 2.73336   3
  -4   8   3 12.9584 3.23144   4
   3  -8  -3 21.3287 2.49002   2
   3  -8  -3 21.3679 2.00516   1
  -3   8   3 22.5688 1.86400   1
  -3   8   3 23.7029 2.86005   4
  -3   8   3 27.6694 3.10904   3
   2  -8  -3 21.4715 2.63571   1
   2  -8  -3 24.3737 2.77058   2
  -2   8   3 20.8928 2.88339   3
  -2   8   3 23.5198 2.75744   4
   1  -8  -3 6.57967 2.68574   1
   1  -8  -3 5.41762 1.85068   2
  -1   8   3 4.84084 2.45515   3
  -1   8   3 3.10058 2.85681   4
   0  -8  -3 4.35757 2.18804   2
   0  -8  -3 6.46208 2.87359   1
   0   8   3 2.72261 2.59863   3
   0   8   3 2.05941 2.05090   4
  -1  -8  -3 2.67538 2.26800   2
   1   8   3 0.91388 2.50975   3
   1   8   3 3.16611 2.32476   4
  -2  -8  -3 8.63965 4.29687   1
  -2  -8  -3 1.34935 2.40392   2
   2   8   3 2.57092 2.41104   4
  -3  -8  -3 6.05394 4.89041   1
  -3  -8  -3 1.69514 2.87690   2
   3   8   3 2.77167 2.72365   4
  -4  -8  -3 3.74622 3.84304   2
  -4  -8  -3 0.05170 5.86992   1
   4   8   3 -2.9533 3.08263   4
  -5  -8  -3 8.89140 7.71638   1
  -5  -8  -3 -0.6267 4.92970   2
  -6  -8  -3 -3.4465 6.07203   2
   6   8   3 -4.8896 3.71339   4
  12  -9  -3 16.7300 5.18709   2
  12  -9  -3 2.96917 6.42606   3
 -12   9   3 3.59646 5.93821   4
  11  -9  -3 4.96572 4.22110   2
 -11   9   3 -6.8008 5.39818   3
 -11   9   3 6.75935 5.28364   4
  10  -9  -3 -1.0102 3.75012   2
 -10   9   3 -3.1317 4.79647   3
 -10   9   3 0.99802 4.15054   4
   9  -9  -3 12.4492 3.49603   2
  -9   9   3 4.57188 3.89655   4
  -9   9   3 3.66301 4.06574   3
   8  -9  -3 7.74172 3.25861   2
  -8   9   3 -3.3267 3.61819   4
  -8   9   3 5.78411 3.37515   3
   7  -9  -3 39.6617 3.90245   2
  -7   9   3 40.7981 4.88555   4
  -7   9   3 34.2967 4.69372   3
   6  -9  -3 9.08910 2.64796   2
  -6   9   3 10.3720 3.24921   3
  -6   9   3 7.77007 3.35082   4
   5  -9  -3 1.67039 2.16902   2
  -5   9   3 1.62067 3.07467   3
  -5   9   3 -1.3237 2.33202   4
   4  -9  -3 0.39144 2.18294   2
  -4   9   3 0.09256 2.68890   3
  -4   9   3 0.40010 2.24279   4
   3  -9  -3 3.86584 1.79250   1
   3  -9  -3 2.15372 1.78634   2
  -3   9   3 -3.3447 2.33406   4
  -3   9   3 -1.3361 2.59903   3
   2  -9  -3 3.85705 2.49889   1
   2  -9  -3 0.49972 1.71651   2
  -2   9   3 -2.9759 2.57692   3
  -2   9   3 -1.2368 2.09122   4
   1  -9  -3 40.8979 4.34479   1
   1  -9  -3 32.2590 3.38076   2
  -1   9   3 31.4307 3.28472   4
  -1   9   3 42.2154 4.17328   3
   0  -9  -3 -0.5769 3.38961   1
   0  -9  -3 -1.4187 2.38666   2
   0   9   3 -4.4886 2.82036   3
   0   9   3 0.88030 2.12902   4
  -1  -9  -3 0.58978 4.35948   1
  -1  -9  -3 1.55940 2.85232   2
   1   9   3 -2.3537 2.28670   4
  -2  -9  -3 5.88080 5.74012   1
  -2  -9  -3 -1.4549 2.50747   2
   2   9   3 -2.8189 2.51162   4
  -3  -9  -3 -1.8644 5.94881   1
  -3  -9  -3 0.71379 3.10369   2
   3   9   3 3.00782 3.15122   4
  -4  -9  -3 -6.7075 6.86023   1
  -4  -9  -3 -2.7511 4.85956   2
   4   9   3 3.67009 5.88225   4
  -5  -9  -3 0.24348 5.91366   2
   5   9   3 -1.3932 3.66080   4
  12 -10  -3 -12.866 5.35255   2
  12 -10  -3 8.46098 6.07596   3
 -12  10   3 -8.2845 6.35402   4
  11 -10  -3 0.25377 4.37793   2
 -11  10   3 -2.2129 5.69288   3
 -11  10   3 8.46325 5.62950   4
  10 -10  -3 7.93245 4.34847   2
 -10  10   3 -0.4625 5.00508   3
 -10  10   3 4.67088 5.09363   4
   9 -10  -3 5.13347 3.50012   2
  -9  10   3 -0.7939 4.27415   4
  -9  10   3 -1.3222 4.43209   3
   8 -10  -3 8.41471 3.29826   2
  -8  10   3 9.37569 3.83984   3
  -8  10   3 10.4192 4.17019   4
   7 -10  -3 18.0255 3.38610   2
  -7  10   3 20.3395 4.19051   4
  -7  10   3 20.7184 4.05768   3
   6 -10  -3 -0.4094 2.54979   2
  -6  10   3 0.04042 3.52337   3
  -6  10   3 -1.7317 2.99498   4
   5 -10  -3 -2.1322 2.45152   2
  -5  10   3 -0.4568 2.85942   4
  -5  10   3 -6.8863 3.23036   3
   4 -10  -3 1.80215 2.02880   2
  -4  10   3 -1.9860 3.10131   3
  -4  10   3 0.44149 2.58631   4
   3 -10  -3 11.0039 2.71415   2
  -3  10   3 12.1115 3.80907   3
  -3  10   3 9.57009 3.15008   4
   2 -10  -3 8.26173 2.62519   2
   2 -10  -3 7.74592 3.00137   1
  -2  10   3 6.48889 2.56237   4
  -2  10   3 6.26806 3.44075   3
   1 -10  -3 19.7758 3.44425   2
   1 -10  -3 15.4241 3.85344   1
  -1  10   3 15.0141 3.13515   4
  -1  10   3 20.7948 3.83474   3
   0 -10  -3 4.27595 2.98612   2
   0 -10  -3 -4.0334 4.78872   1
   0  10   3 1.38758 2.76204   4
   0  10   3 6.25384 3.91745   3
  -1 -10  -3 -4.9767 2.61308   2
  -1 -10  -3 1.96829 5.26926   1
   1  10   3 -5.7283 2.54201   4
  -2 -10  -3 1.41146 3.17954   2
  -2 -10  -3 -5.8288 6.29787   1
   2  10   3 -0.5941 3.06608   4
  -3 -10  -3 -1.6910 4.21909   2
  -3 -10  -3 -5.6385 7.52294   1
   3  10   3 3.27095 3.51191   4
  -4 -10  -3 4.67133 5.28393   2
  11 -11  -3 -3.9517 4.76707   2
 -11  11   3 8.68097 6.69958   3
 -11  11   3 3.76370 6.10945   4
  10 -11  -3 1.62265 4.28939   2
 -10  11   3 6.60634 5.60335   4
 -10  11   3 -3.3755 5.66954   3
   9 -11  -3 1.11481 3.69568   2
  -9  11   3 -3.7793 4.54990   4
  -9  11   3 6.59372 4.63250   3
   8 -11  -3 4.31110 3.67258   2
  -8  11   3 4.10429 4.27891   3
  -8  11   3 5.67285 4.29134   4
   7 -11  -3 1.30119 2.96082   2
  -7  11   3 -2.9950 3.80548   3
  -7  11   3 3.28606 4.15696   4
   6 -11  -3 1.34095 3.00844   2
  -6  11   3 3.18751 3.79632   4
  -6  11   3 0.94245 3.68087   3
   5 -11  -3 0.98967 2.47007   2
  -5  11   3 -0.6353 4.17566   3
  -5  11   3 1.59718 3.36032   4
   4 -11  -3 1.86881 2.81014   2
  -4  11   3 0.69287 3.28181   4
  -4  11   3 0.31175 4.31826   3
   3 -11  -3 4.58253 2.89167   2
  -3  11   3 -1.3002 3.07408   4
  -3  11   3 -4.5647 4.22135   3
   2 -11  -3 5.93980 2.66184   2
  -2  11   3 6.80991 3.10413   4
  -2  11   3 0.06885 3.99257   3
   1 -11  -3 -0.3262 2.42660   2
  -1  11   3 2.69562 4.12513   3
  -1  11   3 1.70548 2.86617   4
   0 -11  -3 4.49700 3.22405   2
   0 -11  -3 0.35967 10.1125   1
   0  11   3 -0.6124 3.02893   4
  -1 -11  -3 1.24109 3.32954   2
  -1 -11  -3 6.99571 6.29843   1
   1  11   3 1.97846 3.47526   4
  -2 -11  -3 -2.8565 7.37987   1
   2  11   3 2.21072 3.59754   4
  11 -12  -3 -4.5135 5.05725   2
  11 -12  -3 6.26037 6.26280   3
 -11  12   3 -3.0813 6.61857   3
 -11  12   3 -9.0421 8.03735   4
  10 -12  -3 -3.8151 4.41544   2
 -10  12   3 7.33093 6.07996   4
 -10  12   3 -6.2349 5.07125   3
   9 -12  -3 2.35486 3.85413   2
  -9  12   3 4.43635 5.08140   3
  -9  12   3 1.46597 5.12936   4
   8 -12  -3 0.04053 3.57791   2
  -8  12   3 4.75292 5.03497   3
  -8  12   3 2.12077 5.38879   4
   7 -12  -3 1.53177 3.33092   2
  -7  12   3 2.29510 4.77322   3
  -7  12   3 4.83266 4.68390   4
   6 -12  -3 1.90433 3.33649   2
  -6  12   3 8.19793 4.03229   4
  -6  12   3 7.33405 5.10498   3
   5 -12  -3 0.65601 2.73096   2
  -5  12   3 -0.0011 3.72718   4
  -5  12   3 -2.4488 4.50758   3
   4 -12  -3 0.85170 2.89797   2
  -4  12   3 2.87012 3.48780   4
  -4  12   3 4.79304 4.84477   3
   3 -12  -3 0.85823 2.70708   2
  -3  12   3 6.09239 5.03935   3
  -3  12   3 -0.0937 3.27819   4
   2 -12  -3 -0.4129 3.06543   2
  -2  12   3 10.4051 4.03406   4
   1 -12  -3 2.10907 3.18484   2
  -1  12   3 0.74317 3.46480   4
   0 -12  -3 -7.5013 5.81141   2
   0  12   3 1.99444 3.83914   4
  -1 -12  -3 1.91725 3.84944   2
   1  12   3 -5.9252 3.69128   4
  10 -13  -3 3.28063 6.13190   3
  10 -13  -3 -7.7113 5.49966   2
 -10  13   3 0.17603 5.79922   3
 -10  13   3 -7.3368 7.07671   4
   9 -13  -3 -3.2894 4.48327   2
  -9  13   3 10.4138 9.40310   4
  -9  13   3 -0.7021 5.03626   3
   8 -13  -3 7.05488 4.30675   2
  -8  13   3 1.76677 6.18911   4
  -8  13   3 -7.5960 5.74479   3
   7 -13  -3 3.13177 3.67665   2
  -7  13   3 3.54818 5.74838   3
  -7  13   3 -3.2559 5.35857   4
   6 -13  -3 4.52259 3.26431   2
  -6  13   3 0.57300 4.43277   4
  -6  13   3 0.04955 5.69001   3
   5 -13  -3 4.26839 3.25981   2
  -5  13   3 3.03800 6.05302   3
  -5  13   3 6.29769 4.55344   4
   4 -13  -3 -2.3864 3.23556   2
  -4  13   3 0.32876 4.23796   4
  -4  13   3 4.50622 5.65898   3
   3 -13  -3 4.31862 3.92215   2
  -3  13   3 1.31869 4.58380   4
  -3  13   3 -7.1227 5.92902   3
   2 -13  -3 1.47502 3.53030   2
  -2  13   3 0.10138 4.44759   4
   1 -13  -3 1.63061 3.89876   2
  -1  13   3 6.90507 4.48764   4
   8 -14  -3 -9.8831 4.24704   2
  -8  14   3 1.44678 6.52309   4
   7 -14  -3 -0.5637 3.71476   2
  -7  14   3 -2.0512 6.47865   3
  -7  14   3 -1.9244 5.90722   4
   6 -14  -3 3.53635 3.95859   2
  -6  14   3 2.36871 6.86385   3
  -6  14   3 -7.8037 5.09791   4
   5 -14  -3 0.20868 3.78888   2
  -5  14   3 8.44625 5.57584   4
  -5  14   3 3.04030 6.96096   3
   4 -14  -3 0.97566 3.89792   2
   4 -14  -3 10.9600 7.74807   3
  -4  14   3 -1.2586 4.95060   4
  -4  14   3 -4.4314 8.59534   3
  -3  14  -4 -5.6967 4.72149   4
   3 -14   4 6.35946 4.46106   2
  -4  14  -4 3.13315 4.76615   4
   4 -14   4 -5.8390 5.55005   3
   4 -14   4 -1.9253 4.76005   2
  -5  14  -4 20.1185 6.12150   4
   5 -14   4 6.46186 4.79631   2
   5 -14   4 -7.9800 5.99579   3
  -6  14  -4 -6.1900 6.74090   4
   6 -14   4 -5.4505 5.07462   2
   6 -14   4 -7.7772 6.09464   3
   0  13  -4 2.43418 4.67776   4
   0 -13   4 -4.6430 4.15467   2
  -1  13  -4 0.42258 4.42891   4
   1 -13   4 0.20965 3.73073   2
  -2  13  -4 -1.4629 6.67507   4
   2 -13   4 0.17603 3.88284   2
  -3  13  -4 5.89379 4.49324   4
   3 -13   4 -9.2072 4.83239   3
   3 -13   4 -1.1453 3.53139   2
  -4  13  -4 3.92959 4.73954   4
   4 -13   4 4.95450 3.92734   2
   4 -13   4 -3.2345 4.82261   3
  -5  13  -4 4.50804 5.44192   4
   5 -13   4 -5.4052 4.01404   2
   5 -13   4 -4.8051 4.63222   3
  -6  13  -4 -5.2470 10.8336   4
   6 -13   4 0.28803 5.38462   3
   6 -13   4 -0.8300 4.23471   2
  -7  13  -4 -0.1586 5.61649   4
   7 -13   4 0.80340 5.23461   3
   7 -13   4 -0.2241 4.52040   2
  -8  13  -4 -5.0338 5.88749   4
   8 -13   4 7.88685 5.45473   3
   8 -13   4 2.39134 4.79841   2
   2  12  -4 0.16008 4.62658   4
   2  12  -4 9.16572 7.71855   1
  -2 -12   4 4.51560 4.05012   2
   1  12  -4 -0.3549 4.28899   4
   1  12  -4 -7.2257 6.18657   1
  -1 -12   4 -0.4560 4.00876   2
   0  12  -4 -3.3071 3.73062   4
   0  12  -4 -3.6609 5.46147   1
   0 -12   4 -4.0012 3.84279   2
  -1  12  -4 -1.1391 3.56195   4
  -1  12  -4 2.32843 7.00360   1
   1 -12   4 3.52790 3.53331   2
  -2  12  -4 1.52737 3.98794   4
   2 -12   4 -8.6902 3.82868   3
   2 -12   4 1.81684 3.29064   2
  -3  12  -4 3.38738 3.76109   4
   3 -12   4 3.41304 3.27352   2
   3 -12   4 -3.5276 4.07916   3
  -4  12  -4 -3.3455 3.94354   4
   4 -12   4 2.33136 3.31797   2
   4 -12   4 -5.7207 3.94182   3
  -5  12  -4 1.93100 4.36784   4
   5 -12   4 -4.6489 3.47837   2
   5 -12   4 1.41511 4.33753   3
  -6  12  -4 1.85493 4.56616   4
   6 -12   4 2.85381 3.45881   2
   6 -12   4 -4.1374 4.05940   3
  -7  12  -4 4.93475 5.14606   4
   7 -12   4 4.50852 4.28158   3
   7 -12   4 3.81655 3.86476   2
   8 -12   4 -2.4079 3.72307   2
   8 -12   4 4.73316 4.11008   3
  -9  12  -4 12.6729 5.51909   4
   9 -12   4 -0.1722 4.38207   3
   3  11  -4 -3.9156 6.35901   1
   3  11  -4 2.38704 4.31174   4
  -3 -11   4 4.34252 3.98561   2
   2  11  -4 5.99344 3.82207   4
   2  11  -4 7.09787 5.69637   1
  -2 -11   4 1.12343 4.14792   2
   1  11  -4 -1.6227 4.99816   1
   1  11  -4 1.70048 3.42244   4
  -1 -11   4 -2.2523 3.39824   2
   0  11  -4 5.32985 3.43154   4
   0  11  -4 -5.7895 4.68813   1
   0 -11   4 1.89547 3.01220   2
  -1  11  -4 -1.3584 3.17170   4
  -1  11  -4 -3.9909 6.31167   1
   1 -11   4 3.30410 3.06052   3
   1 -11   4 3.43089 3.01034   2
  -2  11  -4 0.45527 3.33615   1
  -2  11  -4 2.50254 3.26661   4
   2 -11   4 -0.0473 3.18852   3
   2 -11   4 4.86100 2.87819   2
  -3  11  -4 1.67815 3.16735   1
  -3  11  -4 1.25748 3.36062   4
   3 -11   4 1.69740 2.67578   2
   3 -11   4 1.64064 3.52811   3
  -4  11  -4 1.14118 3.49343   4
   4 -11   4 0.34522 2.83130   2
   4 -11   4 5.83528 3.53477   3
  -5  11  -4 -1.2562 3.74730   4
   5 -11   4 5.72677 3.09747   2
   5 -11   4 0.12145 3.54671   3
  -6  11  -4 3.27701 4.08493   4
   6 -11   4 2.81234 3.44317   3
   6 -11   4 2.48721 3.04481   2
  -7  11  -4 -0.0385 4.47044   4
   7 -11   4 0.65316 4.04931   3
   7 -11   4 0.37269 3.25130   2
  -8  11  -4 3.02029 5.16355   4
   8 -11   4 -0.7171 3.49508   2
   8 -11   4 1.29628 4.15761   3
  -9  11  -4 -1.1825 7.81986   4
   9 -11   4 1.57594 4.82891   3
 -10  11  -4 5.95256 5.81911   4
  10 -11   4 0.40605 4.67858   3
   5  10  -4 3.03065 4.32981   4
  -5 -10   4 1.50043 5.52432   2
   4  10  -4 -4.3599 5.95368   1
   4  10  -4 -0.7958 3.97764   4
  -4 -10   4 0.92767 4.60591   2
   3  10  -4 0.19495 5.50560   1
   3  10  -4 0.00354 3.35010   4
  -3 -10   4 -1.3836 3.68039   2
   2  10  -4 -3.4803 4.86663   1
   2  10  -4 -5.2985 2.71744   4
  -2 -10   4 1.57505 3.40910   2
   1  10  -4 8.63278 4.38608   1
   1  10  -4 3.21449 3.10292   4
  -1 -10   4 3.86102 3.15478   2
   0  10  -4 0.29646 3.94044   1
   0  10  -4 -2.4779 2.87646   4
   0 -10   4 -0.5751 2.39773   3
   0 -10   4 3.60676 2.77419   2
  -1  10  -4 -0.9758 2.78305   4
  -1  10  -4 2.89174 3.07945   1
   1 -10   4 5.09590 2.73762   3
   1 -10   4 -1.7047 2.25090   2
  -2  10  -4 7.02491 3.12040   4
  -2  10  -4 7.60659 2.93497   1
   2 -10   4 9.07139 2.57472   2
   2 -10   4 5.34345 3.16203   3
  -3  10  -4 4.89186 2.64361   1
  -3  10  -4 8.17126 3.15406   4
   3 -10   4 0.20040 2.29449   2
  -4  10  -4 1.17580 2.58151   1
  -4  10  -4 1.06992 3.59811   4
   4 -10   4 -1.0623 2.49661   2
   4 -10   4 -0.8275 3.16355   3
  -5  10  -4 10.1839 3.84059   4
   5 -10   4 4.77733 5.12962   2
   5 -10   4 7.86532 3.30499   3
  -6  10  -4 1.23921 3.58594   4
   6 -10   4 -1.9996 2.56865   2
   6 -10   4 -1.5522 3.34375   3
  -7  10  -4 1.17640 3.94868   4
   7 -10   4 0.41389 3.35537   3
   7 -10   4 -2.0946 2.81114   2
  -8  10  -4 5.22001 4.28929   4
   8 -10   4 2.41390 3.24193   2
   8 -10   4 -2.4715 3.54330   3
  -9  10  -4 -5.7272 4.15751   4
   9 -10   4 4.11801 3.93502   3
 -10  10  -4 -0.3615 5.25801   4
  10 -10   4 -6.6057 4.29738   3
 -11  10  -4 3.93829 6.63130   4
  11 -10   4 14.1737 4.96967   3
   6   9  -4 0.31296 6.26860   1
   6   9  -4 -2.7501 4.80686   4
  -6  -9   4 3.73211 6.04587   2
   5   9  -4 -5.5863 5.97983   1
   5   9  -4 -0.1347 3.44820   4
  -5  -9   4 5.40751 5.53263   2
   4   9  -4 -2.4068 4.97750   1
   4   9  -4 -5.4685 3.17324   4
  -4  -9   4 -0.5972 3.77377   2
   3   9  -4 2.35317 4.58929   1
   3   9  -4 -3.8466 2.79409   4
  -3  -9   4 1.29056 3.40248   2
   2   9  -4 -3.0890 3.93362   1
   2   9  -4 2.61789 2.51982   4
  -2  -9   4 -2.7219 3.00706   2
   1   9  -4 21.0255 3.38134   4
   1   9  -4 17.4225 4.03849   1
  -1  -9   4 15.0438 2.17298   3
  -1  -9   4 16.4235 3.64872   2
   0   9  -4 3.88080 2.62412   4
   0   9  -4 1.89881 3.03695   1
   0  -9   4 2.49892 2.17754   2
   0  -9   4 2.57196 2.06914   3
  -1   9  -4 0.59066 2.45783   4
  -1   9  -4 3.77109 2.51064   1
   1  -9   4 -0.6277 2.09338   2
   1  -9   4 0.61672 2.06860   3
  -2   9  -4 6.85883 2.80317   4
  -2   9  -4 3.90290 2.42221   1
   2  -9   4 7.90134 2.08864   2
   2  -9   4 9.95897 2.47971   3
  -3   9  -4 18.2981 2.58389   1
  -3   9  -4 17.2715 3.57638   4
   3  -9   4 10.6704 3.09382   3
   3  -9   4 15.3626 2.65818   2
  -4   9  -4 -0.4725 3.04223   4
  -4   9  -4 -1.4246 2.09397   1
   4  -9   4 1.24862 2.44143   3
   4  -9   4 -0.5064 2.23317   2
  -5   9  -4 37.4896 3.45374   1
  -5   9  -4 45.2522 4.93988   4
   5  -9   4 35.6858 3.11941   2
   5  -9   4 45.7915 4.71841   3
  -6   9  -4 -1.0138 3.38353   4
  -6   9  -4 -4.5448 2.69172   1
   6  -9   4 0.73747 1.99883   2
   6  -9   4 1.82776 2.81969   3
  -7   9  -4 0.23621 3.44700   1
  -7   9  -4 8.80874 4.10581   4
   7  -9   4 1.80387 2.42295   2
   7  -9   4 -1.7017 2.87365   3
  -8   9  -4 3.42771 4.66194   4
  -8   9  -4 7.06964 4.16820   1
   8  -9   4 0.60314 2.55359   2
   8  -9   4 -0.2077 3.40035   3
  -9   9  -4 2.24404 4.38115   4
   9  -9   4 4.74992 3.54725   3
 -10   9  -4 -1.8202 4.52266   4
  10  -9   4 4.68305 4.28173   3
 -11   9  -4 1.07750 6.13312   4
  11  -9   4 -2.5754 4.32869   3
   7   8  -4 5.71152 6.54469   1
  -7  -8   4 1.59983 5.92911   2
   6   8  -4 -6.1792 4.92555   1
   6   8  -4 0.45354 3.51208   4
  -6  -8   4 -1.7703 4.66768   2
   5   8  -4 9.04585 4.85772   1
   5   8  -4 0.06472 2.92088   4
  -5  -8   4 0.44427 3.86034   2
   4   8  -4 -4.8173 4.05289   1
   4   8  -4 -1.4554 2.59536   4
  -4  -8   4 -0.3968 3.42861   2
   3   8  -4 2.20591 2.28538   4
   3   8  -4 2.33101 3.49661   1
  -3  -8   4 3.38223 3.19109   2
   2   8  -4 7.36114 2.27440   4
  -2  -8   4 8.32194 1.39873   3
  -2  -8   4 13.5230 3.30208   2
   1   8  -4 28.4260 2.98482   4
  -1  -8   4 30.4306 2.50325   3
  -1  -8   4 22.6976 3.58683   2
   0   8  -4 6.17526 2.56521   1
   0   8  -4 2.21546 2.15363   4
   0  -8   4 3.01671 1.70169   3
   0  -8   4 2.47762 2.04744   2
  -1   8  -4 3.59421 2.03329   1
  -1   8  -4 0.94522 1.89585   4
   1  -8   4 1.46914 1.66255   3
   1  -8   4 -0.8613 1.77692   2
  -2   8  -4 14.1376 2.08103   1
  -2   8  -4 9.72313 2.79191   4
   2  -8   4 6.36622 3.09550   2
   2  -8   4 14.7207 2.32493   3
  -3   8  -4 26.4051 3.43797   4
  -3   8  -4 21.6112 2.43992   1
   3  -8   4 26.5874 2.41776   2
   3  -8   4 25.0439 3.44042   3
  -4   8  -4 6.29134 4.01907   4
  -4   8  -4 13.2757 2.39646   1
   4  -8   4 13.3898 2.78383   3
   4  -8   4 10.4146 1.93383   2
  -5   8  -4 40.6043 4.56302   4
  -5   8  -4 48.0437 3.51168   1
   5  -8   4 43.1098 4.22900   3
   5  -8   4 50.2469 2.95791   2
  -6   8  -4 -0.7077 2.71258   1
  -6   8  -4 0.16744 3.13517   4
   6  -8   4 2.06916 1.90061   2
   6  -8   4 1.14943 2.64382   3
  -7   8  -4 4.02854 3.25331   1
  -7   8  -4 1.25914 3.49046   4
   7  -8   4 -1.2578 1.87693   2
   7  -8   4 2.32182 2.72234   3
  -8   8  -4 3.11493 4.05995   4
  -8   8  -4 5.32229 4.20345   1
   8  -8   4 2.95976 3.19764   3
   8  -8   4 2.88195 2.13827   2
  -9   8  -4 6.45795 4.65988   4
  -9   8  -4 7.33572 5.42302   1
   9  -8   4 2.70367 3.29452   3
 -10   8  -4 -0.2436 4.63556   4
 -10   8  -4 3.60489 6.69923   1
  10  -8   4 4.33300 3.87289   3
 -11   8  -4 -0.1083 5.31491   4
 -11   8  -4 -3.4489 8.30285   1
  11  -8   4 6.74878 5.38231   3
   7   7  -4 6.79110 5.87705   1
   7   7  -4 8.51157 3.89671   4
  -7  -7   4 -4.0046 4.54352   2
   6   7  -4 8.87770 5.03484   1
   6   7  -4 2.38137 3.19128   4
  -6  -7   4 -6.1724 3.84467   2
   5   7  -4 -1.0591 2.68255   4
   5   7  -4 -0.0886 3.87151   1
  -5  -7   4 -0.8122 3.37647   2
   4   7  -4 0.11487 2.24259   4
   4   7  -4 -0.8685 3.38616   1
  -4  -7   4 -1.1860 2.43960   2
   3   7  -4 -1.2535 3.30410   1
   3   7  -4 2.12475 2.12434   4
  -3  -7   4 -0.2637 2.34045   2
   2   7  -4 12.7901 2.40997   4
   2   7  -4 14.4068 3.26650   1
  -2  -7   4 15.2711 3.01347   2
  -2  -7   4 12.4543 1.58601   3
   1   7  -4 19.2247 3.05315   1
  -1  -7   4 18.3960 1.92344   3
  -1  -7   4 14.7713 2.67014   2
   0   7  -4 17.0668 2.14170   4
   0   7  -4 16.1660 2.61192   1
   0  -7   4 16.1521 1.99519   3
  -1   7  -4 1.53265 1.67288   1
  -1   7  -4 2.97828 1.61858   4
   1  -7   4 2.66863 1.39992   2
   1  -7   4 2.22482 1.31492   3
  -2   7  -4 10.6866 1.89818   4
  -2   7  -4 13.5252 1.89458   1
   2  -7   4 8.66537 1.60085   2
   2  -7   4 10.8803 1.83305   3
  -3   7  -4 21.9806 2.46101   4
  -3   7  -4 25.4867 2.27432   1
   3  -7   4 25.7301 2.78771   3
   3  -7   4 25.9322 2.24911   2
  -4   7  -4 45.9838 2.90016   1
  -4   7  -4 48.4461 4.04718   4
   4  -7   4 45.5342 2.61473   2
   4  -7   4 42.2731 4.07540   3
  -5   7  -4 14.1227 2.55754   1
  -5   7  -4 9.97078 2.96050   4
   5  -7   4 14.8622 2.97596   3
   5  -7   4 12.6009 1.89525   2
  -6   7  -4 -2.6432 2.47164   1
  -6   7  -4 0.47789 3.04990   4
   6  -7   4 1.09667 1.58370   2
   6  -7   4 -0.6537 2.38814   3
  -7   7  -4 1.34600 3.08850   1
  -7   7  -4 4.01212 3.29838   4
   7  -7   4 2.25629 2.62125   3
   7  -7   4 -0.5091 1.62286   2
  -8   7  -4 8.42113 4.52677   1
  -8   7  -4 4.36606 3.61858   4
   8  -7   4 4.85569 3.03193   3
   8  -7   4 -0.2379 1.94961   2
  -9   7  -4 7.24628 4.49381   4
  -9   7  -4 4.55859 5.49053   1
   9  -7   4 2.24095 3.29271   3
 -10   7  -4 1.35374 4.48556   4
 -10   7  -4 -6.9136 6.85964   1
  10  -7   4 -0.6131 3.61794   3
 -11   7  -4 11.5484 7.45138   1
 -11   7  -4 -4.9505 5.01675   4
  11  -7   4 -7.2107 4.56149   3
   8   6  -4 -8.0181 3.65999   4
   8   6  -4 5.87727 5.73661   1
  -8  -6   4 0.50747 5.15672   2
   7   6  -4 6.27037 5.07298   1
   7   6  -4 -3.2321 3.05339   4
  -7  -6   4 -0.6092 4.36429   2
   6   6  -4 0.33060 2.76446   4
   6   6  -4 4.98573 4.56983   1
  -6  -6   4 5.56191 3.68108   2
   5   6  -4 3.07611 3.74616   1
   5   6  -4 2.98032 2.43002   4
  -5  -6   4 0.47603 3.17121   2
   4   6  -4 2.29745 1.94998   4
   4   6  -4 2.38670 3.12046   1
  -4  -6   4 -0.6412 2.70616   2
   3   6  -4 15.9948 3.30834   1
  -3  -6   4 13.5875 2.81571   2
   2   6  -4 69.2448 3.19666   4
   2   6  -4 74.7883 4.18869   1
  -2  -6   4 65.4402 2.51068   3
  -2  -6   4 62.5661 3.67571   2
   1   6  -4 69.0498 3.35773   4
   1   6  -4 73.8675 4.04427   1
  -1  -6   4 76.8055 3.73300   2
  -1  -6   4 73.7706 2.89137   3
   0   6  -4 75.1749 3.79202   1
   0   6  -4 78.0749 3.51946   4
   0  -6   4 77.4374 3.16742   3
   0  -6   4 80.3322 3.62296   2
  -1   6  -4 2.89744 1.37844   4
  -1   6  -4 1.74945 1.35396   1
   1  -6   4 2.10215 1.19920   3
   1  -6   4 0.81224 1.17732   2
  -2   6  -4 21.4506 2.07670   4
  -2   6  -4 16.6726 1.92726   1
   2  -6   4 16.0836 1.71181   2
   2  -6   4 19.8219 2.06814   3
  -3   6  -4 89.4723 3.63497   1
  -3   6  -4 83.4003 4.08474   4
   3  -6   4 85.8755 3.43635   2
   3  -6   4 85.7802 3.87697   3
  -4   6  -4 65.8147 3.21886   1
  -4   6  -4 65.9570 3.77550   4
   4  -6   4 67.8814 3.62591   3
   4  -6   4 63.6689 2.84289   2
  -5   6  -4 29.4353 3.55593   4
  -5   6  -4 34.6532 2.94357   1
   5  -6   4 30.7125 2.06389   2
   5  -6   4 31.2481 3.14440   3
  -6   6  -4 6.87704 3.47423   4
  -6   6  -4 13.7751 2.80228   1
   6  -6   4 13.0558 1.60759   2
   6  -6   4 8.14045 2.41302   3
  -7   6  -4 1.06869 2.89263   4
  -7   6  -4 2.55458 3.00847   1
   7  -6   4 1.00874 1.40991   2
   7  -6   4 1.32871 2.51707   3
  -8   6  -4 7.70613 3.90919   4
  -8   6  -4 11.3822 3.88237   1
   8  -6   4 0.74703 2.85395   3
  -9   6  -4 1.75119 3.66828   4
  -9   6  -4 1.32630 4.44897   1
   9  -6   4 -0.2405 3.09153   3
 -10   6  -4 3.47709 6.36589   1
 -10   6  -4 -1.3548 4.33532   4
  10  -6   4 -4.3799 4.10169   3
 -11   6  -4 -0.3730 7.27741   1
 -11   6  -4 -4.9289 5.15447   4
  11  -6   4 -0.6551 4.91950   3
   9   5  -4 0.37189 3.91339   4
   9   5  -4 1.02629 5.62680   1
  -9  -5   4 -0.6996 6.12530   2
   8   5  -4 1.98317 3.37124   4
   8   5  -4 -0.9952 4.47151   1
  -8  -5   4 1.19566 4.44412   2
  -8  -5   4 -0.5636 5.63089   1
   7   5  -4 14.6563 4.54802   1
   7   5  -4 13.6374 3.20491   4
  -7  -5   4 18.4124 4.55688   2
  -7  -5   4 8.54437 5.41218   1
   6   5  -4 5.29033 4.03535   1
   6   5  -4 -1.6208 2.50654   4
  -6  -5   4 -8.2648 3.96121   1
  -6  -5   4 -0.2024 3.18154   2
   5   5  -4 14.0176 2.51193   4
   5   5  -4 20.0580 3.98718   1
  -5  -5   4 15.0557 3.65456   2
   4   5  -4 1.28381 2.69109   1
   4   5  -4 0.97687 1.56641   4
  -4  -5   4 2.89615 2.94243   2
   3   5  -4 24.8087 1.96843   3
   3   5  -4 29.8735 2.97756   1
   3   5  -4 31.8535 2.23469   4
  -3  -5   4 29.2178 3.03942   2
  -3  -5   4 27.2898 1.56214   3
   2   5  -4 113.443 4.12129   4
   2   5  -4 112.639 4.93599   1
  -2  -5   4 107.998 3.50392   3
  -2  -5   4 113.871 4.73365   2
   1   5  -4 228.005 7.71858   1
   1   5  -4 221.638 6.94561   4
  -1  -5   4 228.404 6.47139   3
  -1  -5   4 225.353 7.34822   2
   0   5  -4 27.5696 2.15262   1
   0   5  -4 25.3615 1.95024   4
   0  -5   4 26.1988 1.93981   2
   0  -5   4 27.6681 1.75896   3
  -1   5  -4 20.8651 1.74190   1
  -1   5  -4 20.0975 1.93043   4
   1  -5   4 19.2124 1.71310   2
   1  -5   4 23.1510 1.82872   3
  -2   5  -4 49.4132 2.51398   1
  -2   5  -4 44.9392 2.66958   4
   2  -5   4 45.4371 2.50641   3
   2  -5   4 45.0307 2.27072   2
  -3   5  -4 127.197 5.01780   4
  -3   5  -4 124.805 4.50105   1
   3  -5   4 129.614 4.17713   2
   3  -5   4 128.073 4.89772   3
  -4   5  -4 80.8151 3.66490   1
  -4   5  -4 82.0497 4.11011   4
   4  -5   4 87.0830 3.92785   3
   4  -5   4 84.1544 2.94253   2
  -5   5  -4 49.0572 3.26801   1
  -5   5  -4 46.6055 3.53407   4
   5  -5   4 50.0746 2.12639   2
   5  -5   4 51.8417 4.08809   3
  -6   5  -4 22.7386 3.76581   4
  -6   5  -4 18.1193 2.93072   1
   6  -5   4 14.7524 1.44653   2
   6  -5   4 18.5848 2.88112   3
   6  -5   4 18.6466 2.33301   2
  -7   5  -4 3.06630 3.04032   4
  -7   5  -4 2.95161 3.07338   1
   7  -5   4 0.21610 2.11362   3
   7  -5   4 1.64852 1.10459   2
  -8   5  -4 3.57107 3.35313   4
   8  -5   4 2.87516 2.82571   3
  -9   5  -4 2.29861 3.81918   4
  -9   5  -4 1.98731 4.79237   1
   9  -5   4 -2.5869 3.18247   3
 -10   5  -4 2.89485 4.35008   4
 -10   5  -4 6.49574 6.13968   1
  10  -5   4 -3.3640 3.80368   3
 -11   5  -4 -1.4210 7.19568   1
 -11   5  -4 0.60767 5.54030   4
  11  -5   4 2.22622 4.54180   3
  10   4  -4 -1.6293 5.37744   1
  10   4  -4 4.75750 4.44785   4
   9   4  -4 0.51685 3.36094   4
  -9  -4   4 -4.6830 6.25257   1
  -9  -4   4 7.17723 4.99349   2
   8   4  -4 5.69120 2.91011   4
  -8  -4   4 -0.9785 5.00438   1
  -8  -4   4 2.79809 4.31665   2
   7   4  -4 21.8016 3.21581   4
  -7  -4   4 15.3155 5.04341   1
  -7  -4   4 14.4845 4.13847   2
   6   4  -4 4.04953 2.16054   4
  -6  -4   4 2.29368 2.88851   2
  -6  -4   4 -2.2522 3.40268   1
   5   4  -4 54.4777 2.92650   4
   5   4  -4 50.3589 4.75248   1
  -5  -4   4 51.3320 4.80626   2
   4   4  -4 6.20886 2.98449   1
   4   4  -4 6.98535 1.07862   3
   4   4  -4 8.89921 1.50386   4
  -4  -4   4 6.86123 2.53725   2
   3   4  -4 33.1222 1.76093   3
   3   4  -4 30.9915 2.83692   1
   3   4  -4 32.2611 1.99312   4
  -3  -4   4 28.7403 1.60322   3
  -3  -4   4 27.1373 2.38686   2
   2   4  -4 344.002 10.6144   1
   2   4  -4 324.755 9.36096   4
  -2  -4   4 347.742 9.05924   3
  -2  -4   4 332.697 10.2122   2
   1   4  -4 769.922 20.4249   1
   1   4  -4 753.822 19.5359   4
  -1  -4   4 708.409 20.0142   2
  -1  -4   4 752.269 19.2000   3
   0   4  -4 33.0733 2.05465   1
   0   4  -4 31.5707 1.87420   4
   0  -4   4 30.7062 1.69840   3
   0  -4   4 34.5389 1.99418   2
  -1   4  -4 217.458 6.63915   1
  -1   4  -4 211.981 6.71879   4
   1  -4   4 219.155 6.59902   3
   1  -4   4 224.077 6.55406   2
  -2   4  -4 17.6652 1.84832   4
  -2   4  -4 20.1832 1.71397   1
   2  -4   4 21.7150 1.67870   3
   2  -4   4 18.8507 1.38155   2
  -3   4  -4 123.474 4.00701   2
  -3   4  -4 130.355 4.59905   1
  -3   4  -4 131.102 5.04384   4
   3  -4   4 135.943 3.96473   2
   3  -4   4 130.286 4.81638   3
  -4   4  -4 143.633 5.58781   4
  -4   4  -4 142.532 5.28380   1
  -4   4  -4 136.200 4.34412   2
   4  -4   4 144.390 5.35908   3
   4  -4   4 142.736 4.08797   2
  -5   4  -4 62.8158 3.62593   4
  -5   4  -4 57.8349 3.60659   1
   5  -4   4 57.8270 2.33937   2
   5  -4   4 62.6904 3.34734   3
  -6   4  -4 22.6553 3.69329   4
  -6   4  -4 27.1241 3.34212   1
   6  -4   4 19.7168 1.13185   2
   6  -4   4 22.4749 3.04370   3
  -7   4  -4 3.51665 3.15041   1
  -7   4  -4 5.15967 3.15499   4
   7  -4   4 1.32423 2.69888   3
  -8   4  -4 7.82100 3.99359   1
  -8   4  -4 0.89438 3.07042   4
   8  -4   4 5.39327 2.75155   3
  -9   4  -4 5.78312 4.11304   4
  -9   4  -4 6.58774 5.20521   1
   9  -4   4 -0.2865 3.13905   3
 -10   4  -4 13.1896 5.41522   4
 -10   4  -4 12.5035 6.44492   1
  10  -4   4 -0.5539 3.94633   3
 -11   4  -4 6.50387 5.32776   4
 -11   4  -4 -4.6116 6.71692   1
  11  -4   4 -3.6318 4.73335   3
  10   3  -4 -7.9684 3.62736   4
 -10  -3   4 -7.2461 5.78757   1
 -10  -3   4 5.11318 6.65187   2
   9   3  -4 -6.2479 3.21031   4
  -9  -3   4 3.60648 4.96384   1
  -9  -3   4 -4.0549 4.91538   2
   8   3  -4 2.66912 2.93887   4
  -8  -3   4 2.94380 4.09371   2
  -8  -3   4 1.59860 4.47089   1
   7   3  -4 15.3056 3.59267   4
  -7  -3   4 16.6119 4.56320   1
  -7  -3   4 20.1885 3.74607   2
   6   3  -4 48.1928 2.87207   4
  -6  -3   4 46.3049 4.29178   2
  -6  -3   4 42.4873 2.51608   3
  -6  -3   4 41.3125 4.28150   1
   5   3  -4 86.8668 3.47987   4
   5   3  -4 78.3916 5.00536   1
   5   3  -4 70.7200 2.61185   3
  -5  -3   4 76.5367 3.13615   3
  -5  -3   4 80.5948 4.54374   2
  -5  -3   4 70.8222 5.10328   1
   4   3  -4 8.15199 1.07749   3
   4   3  -4 6.63005 2.20603   1
   4   3  -4 10.4990 1.44903   4
  -4  -3   4 9.51771 1.33402   3
  -4  -3   4 8.26928 1.77520   2
   3   3  -4 165.649 5.05905   4
   3   3  -4 170.745 6.37932   1
   3   3  -4 156.376 4.71140   3
  -3  -3   4 165.248 4.87141   3
  -3  -3   4 163.114 6.03431   2
   2   3  -4 400.932 11.8499   1
   2   3  -4 391.618 10.6559   4
  -2  -3   4 402.347 10.5698   3
  -2  -3   4 399.998 11.5594   2
   1   3  -4 359.641 10.3594   1
   1   3  -4 358.855 9.58595   4
  -1  -3   4 359.583 9.48692   3
  -1  -3   4 332.899 10.0614   2
   0   3  -4 175.353 5.67498   1
   0   3  -4 187.730 5.50622   4
   0  -3   4 184.590 5.38055   3
   0  -3   4 178.749 5.56388   2
  -1   3  -4 111.345 3.89268   4
  -1   3  -4 109.074 3.80533   1
   1  -3   4 106.881 3.69628   3
   1  -3   4 110.257 3.59564   2
  -2   3  -4 20.3085 1.74971   4
  -2   3  -4 19.0093 1.58811   1
  -2   3  -4 19.8247 1.10883   2
   2  -3   4 21.9824 1.59118   3
   2  -3   4 19.2208 1.18209   2
  -3   3  -4 232.214 6.33333   2
  -3   3  -4 238.890 7.69976   4
  -3   3  -4 239.170 7.39487   1
   3  -3   4 242.305 7.41368   3
   3  -3   4 239.602 6.30968   2
  -4   3  -4 160.623 6.04326   4
  -4   3  -4 163.289 5.89241   1
   4  -3   4 163.766 5.67523   3
  -5   3  -4 81.8696 4.21326   4
  -5   3  -4 82.7917 4.21121   1
   5  -3   4 79.1865 3.72411   3
  -6   3  -4 21.6623 3.52695   4
  -6   3  -4 23.6137 3.12727   1
   6  -3   4 20.0954 2.89747   3
  -7   3  -4 3.19325 3.31981   1
  -7   3  -4 1.33098 3.00733   4
   7  -3   4 2.07444 2.03858   3
  -8   3  -4 1.03244 3.04815   4
  -8   3  -4 2.52153 3.71950   1
   8  -3   4 -0.7240 2.46312   3
  -9   3  -4 2.76752 4.92430   1
  -9   3  -4 0.09040 3.35413   4
   9  -3   4 -4.6422 2.98998   3
 -10   3  -4 0.60777 3.92866   4
 -10   3  -4 6.59305 6.11698   1
  10  -3   4 0.56588 4.21914   4
  10  -3   4 4.35106 3.77419   3
 -11   3  -4 -6.4108 7.01400   1
  11  -3   4 -4.4543 4.40371   3
  11  -3   4 -9.1101 5.24377   4
  11   2  -4 1.52588 4.96403   4
 -11  -2   4 4.65776 6.64562   2
 -11  -2   4 -13.570 6.43419   1
  10   2  -4 -2.1812 3.84855   4
 -10  -2   4 -4.6652 5.13449   1
 -10  -2   4 2.64151 5.60127   2
   9   2  -4 1.89708 3.40543   4
  -9  -2   4 4.16533 5.18308   1
  -9  -2   4 6.99063 5.01720   2
   8   2  -4 9.94492 2.93910   4
  -8  -2   4 4.66722 3.64801   2
  -8  -2   4 3.32730 3.80525   1
  -7  -2   4 33.7543 3.14703   3
  -7  -2   4 38.6732 4.39746   2
  -7  -2   4 39.6259 5.31412   1
   6   2  -4 108.202 4.25057   4
  -6  -2   4 92.1172 4.09448   3
  -6  -2   4 106.811 5.58746   2
  -6  -2   4 104.168 6.00636   1
   5   2  -4 92.7573 3.62753   4
   5   2  -4 88.2766 4.62876   1
  -5  -2   4 91.4220 4.37558   2
  -5  -2   4 92.9733 3.63452   3
  -5  -2   4 87.5752 4.86989   1
   4   2  -4 33.3845 2.66736   1
   4   2  -4 34.4065 1.85347   4
  -4  -2   4 34.9601 2.66593   2
  -4  -2   4 31.7075 2.03289   3
   3   2  -4 13.1379 1.10520   4
   3   2  -4 13.7326 1.68262   1
  -3  -2   4 14.3961 1.78739   2
  -3  -2   4 13.2669 1.30304   3
   2   2  -4 246.099 7.73309   1
   2   2  -4 246.032 6.57966   4
  -2  -2   4 233.850 6.65253   4
  -2  -2   4 242.456 6.75053   3
  -2  -2   4 244.510 7.50242   2
   1   2  -4 845.187 21.3463   4
   1   2  -4 881.283 22.2647   1
  -1  -2   4 825.350 21.9909   2
  -1  -2   4 844.469 21.4779   3
  -1  -2   4 807.174 21.2126   4
   0   2  -4 757.375 19.6549   1
   0   2  -4 768.042 19.3411   4
   0  -2   4 699.852 19.1115   4
   0  -2   4 750.756 19.3193   3
   0  -2   4 775.438 19.5223   2
  -1   2  -4 60.2334 2.03941   2
  -1   2  -4 60.8963 2.52641   1
  -1   2  -4 63.2353 2.57827   4
   1  -2   4 62.4003 2.24080   2
   1  -2   4 58.4036 2.34423   3
  -2   2  -4 8.68395 1.25260   1
  -2   2  -4 5.59387 0.54127   2
  -2   2  -4 6.54873 1.37177   4
   2  -2   4 5.90325 0.98641   3
   2  -2   4 6.15375 0.73599   2
  -3   2  -4 66.7666 3.26093   4
  -3   2  -4 67.1924 3.13496   1
   3  -2   4 67.6391 2.86837   3
  -4   2  -4 162.793 6.17364   4
  -4   2  -4 164.627 6.05606   1
   4  -2   4 173.448 5.66610   3
  -5   2  -4 107.077 4.89326   1
  -5   2  -4 97.6515 4.67515   4
   5  -2   4 108.990 4.32050   3
  -6   2  -4 20.0592 3.74613   1
  -6   2  -4 15.5593 2.96788   4
   6  -2   4 20.2996 2.34072   3
  -7   2  -4 1.72939 3.02380   4
   7  -2   4 -2.4710 1.99737   3
  -8   2  -4 -5.3627 3.70127   1
  -8   2  -4 3.28188 3.11736   4
   8  -2   4 0.35537 2.77601   3
  -9   2  -4 -3.5621 4.89475   1
   9  -2   4 -0.1476 4.02871   4
   9  -2   4 5.43880 3.11483   3
 -10   2  -4 -2.3101 5.95554   1
  10  -2   4 -0.0611 4.20134   4
  10  -2   4 -3.9356 3.89239   3
 -11   2  -4 2.90041 7.12552   1
  11  -2   4 3.42851 5.21714   4
  11  -2   4 -4.7322 4.29691   3
  11   1  -4 0.45621 4.66781   4
 -11  -1   4 -0.9995 6.29839   1
 -11  -1   4 3.24119 6.51010   2
  10   1  -4 -1.1502 3.62775   4
 -10  -1   4 7.91043 4.99772   2
 -10  -1   4 -4.5169 5.16556   1
   9   1  -4 6.81943 3.09265   4
   9   1  -4 1.85049 3.84510   3
  -9  -1   4 -6.8063 3.87260   1
  -9  -1   4 5.34543 4.45260   2
   8   1  -4 8.04670 2.83340   4
  -8  -1   4 5.81444 2.68430   3
  -8  -1   4 9.17759 3.74246   2
  -8  -1   4 4.49474 3.65388   1
   7   1  -4 59.9919 3.46823   4
  -7  -1   4 64.2320 3.91686   3
  -7  -1   4 64.0678 4.77453   2
  -7  -1   4 56.8591 5.15267   1
   6   1  -4 136.195 4.85986   4
  -6  -1   4 124.295 7.04813   1
  -6  -1   4 126.318 5.60025   2
  -6  -1   4 134.734 5.08138   3
   5   1  -4 169.155 6.60048   1
   5   1  -4 156.492 5.20019   4
  -5  -1   4 161.594 6.21196   2
  -5  -1   4 159.032 5.54561   3
   4   1  -4 107.610 4.61189   1
   4   1  -4 107.799 3.54729   4
  -4  -1   4 106.037 4.47731   2
  -4  -1   4 106.425 3.89730   3
   3   1  -4 96.3892 3.01312   4
   3   1  -4 100.466 4.05282   1
  -3  -1   4 104.301 4.10308   2
  -3  -1   4 99.0396 3.45019   3
  -3  -1   4 97.1868 3.34387   4
   2   1  -4 1915.72 48.8950   1
   2   1  -4 1917.43 47.6542   4
  -2  -1   4 1907.86 48.8079   2
  -2  -1   4 1953.89 48.2048   3
  -2  -1   4 1899.34 47.7390   4
   1   1  -4 1608.08 40.8946   1
   1   1  -4 1642.75 40.1198   4
  -1  -1   4 1635.05 40.4998   3
  -1  -1   4 1576.76 40.8557   2
  -1  -1   4 1584.63 39.9775   4
   0   1  -4 657.675 17.0850   1
   0   1  -4 655.332 16.7434   4
   0   1  -4 636.196 16.8013   2
   0  -1   4 665.790 16.9212   2
   0  -1   4 637.565 16.6500   4
   0  -1   4 645.278 16.8228   3
  -1   1  -4 379.813 9.89469   2
  -1   1  -4 380.860 10.4585   4
  -1   1  -4 378.866 10.5270   1
   1  -1   4 371.040 10.2830   3
   1  -1   4 394.622 9.98280   2
  -2   1  -4 34.5810 2.06027   4
  -2   1  -4 33.1525 2.00779   1
   2  -1   4 33.3765 1.70079   3
  -3   1  -4 105.139 4.25316   1
  -3   1  -4 102.852 4.22699   4
   3  -1   4 109.345 3.82817   3
  -4   1  -4 218.198 7.45961   4
  -4   1  -4 213.921 7.60041   1
   4  -1   4 221.499 6.80489   3
  -5   1  -4 118.839 5.29380   1
  -5   1  -4 109.128 5.21125   4
   5  -1   4 121.596 4.51574   3
  -6   1  -4 18.8626 1.75939   2
  -6   1  -4 22.9358 3.97629   1
  -6   1  -4 19.0593 3.75580   4
   6  -1   4 16.7019 1.46581   2
   6  -1   4 22.7536 2.30010   3
  -7   1  -4 1.43108 1.81810   2
  -7   1  -4 2.57175 3.15030   1
   7  -1   4 1.27724 2.88531   4
   7  -1   4 -1.7043 3.67981   3
  -8   1  -4 -1.1441 3.85575   1
   8  -1   4 5.10145 2.74380   3
   8  -1   4 1.79086 3.59486   4
  -9   1  -4 9.09763 4.98458   1
   9  -1   4 2.68847 4.39933   4
   9  -1   4 2.57637 3.09795   3
 -10   1  -4 -3.7150 5.53494   1
  10  -1   4 -6.9531 4.53168   4
  10  -1   4 -0.9794 3.70496   3
  11   0  -4 4.37533 4.53706   4
 -11   0   4 5.54930 6.03705   2
 -11   0   4 4.95760 5.84932   1
  10   0  -4 2.04385 4.63796   3
  10   0  -4 -3.5786 3.65999   4
 -10   0   4 -1.5765 4.22033   2
 -10   0   4 -3.5927 4.46069   1
   9   0  -4 3.86263 2.96761   4
  -9   0   4 2.36809 3.62470   2
  -9   0   4 1.28951 3.93211   1
  -9   0   4 4.85494 3.16895   3
  -8   0   4 3.93558 3.55394   1
  -8   0   4 4.77989 2.61293   3
  -8   0   4 8.42989 3.33340   2
   7   0  -4 55.1139 3.30773   4
  -7   0   4 57.9820 3.73277   3
  -7   0   4 58.3308 4.94390   1
  -7   0   4 56.7135 4.55742   2
   6   0  -4 209.784 6.84828   4
  -6   0   4 208.441 7.13068   3
  -6   0   4 213.130 7.77031   2
  -6   0   4 214.633 7.93109   1
   5   0  -4 123.588 4.27716   4
   5   0  -4 125.339 5.20948   1
  -5   0   4 118.027 4.99790   2
  -5   0   4 125.282 4.70981   3
   4   0  -4 329.526 9.20941   4
   4   0  -4 343.067 10.4406   1
   4   0  -4 341.403 9.81629   4
  -4   0   4 347.087 10.3767   2
  -4   0   4 340.604 9.79780   3
   3   0  -4 452.930 11.8165   4
   3   0  -4 446.839 11.7127   4
   3   0  -4 477.766 12.9768   1
  -3   0   4 445.196 12.8940   2
  -3   0   4 460.483 12.4420   3
   2   0  -4 496.153 13.2100   1
  -2   0   4 478.637 12.8218   3
  -2   0   4 470.375 13.1990   2
   1   0  -4 594.104 14.8935   4
   1   0  -4 589.455 15.6616   1
  -1   0   4 593.850 15.7729   2
  -1   0   4 594.778 15.5097   3
  -1   0   4 597.733 14.8959   4
   0   0  -4 969.658 25.3061   2
   0   0  -4 989.571 25.5248   1
   0   0  -4 1016.61 25.1681   4
   0   0   4 979.252 25.2020   4
   0   0   4 1035.14 25.3864   2
   0   0   4 971.747 25.3122   3
  -1   0  -4 235.498 7.23450   2
  -1   0  -4 267.079 7.12313   2
  -1   0  -4 269.438 7.57188   4
  -1   0  -4 280.064 7.80879   1
   1   0   4 269.243 7.39093   3
  -2   0  -4 220.269 5.79919   2
  -2   0  -4 221.630 7.04418   1
  -2   0  -4 226.492 6.89745   4
   2   0   4 221.307 5.98965   2
   2   0   4 220.121 6.40774   3
  -3   0  -4 294.443 7.87860   2
  -3   0  -4 307.869 9.25703   4
  -3   0  -4 310.899 9.54685   1
   3   0   4 313.389 8.63261   3
   3   0   4 290.530 7.94616   2
  -4   0  -4 111.197 4.93588   1
  -4   0  -4 99.2389 3.31531   2
   4   0   4 109.632 4.62049   4
   4   0   4 103.265 3.23284   2
   4   0   4 109.237 3.90992   3
  -5   0  -4 73.1319 2.95030   2
   5   0   4 71.7789 2.71465   2
   5   0   4 58.8533 5.03766   4
   5   0   4 83.1525 3.41754   3
  -6   0  -4 14.7529 2.11174   2
  -6   0  -4 6.01712 2.84489   1
   6   0   4 10.4291 2.96808   4
   6   0   4 16.2842 2.09755   3
  -7   0  -4 -3.8751 3.36747   1
  -7   0  -4 -0.1350 2.37968   2
   7   0   4 1.77958 3.24186   4
   7   0   4 0.64933 1.88735   3
  -8   0  -4 2.65363 4.30573   1
   8   0   4 -3.1203 3.24556   4
   8   0   4 -0.6956 2.61099   3
  -9   0  -4 0.73185 4.97453   1
   9   0   4 1.01817 3.72904   4
   9   0   4 -1.7923 3.16161   3
 -10   0  -4 3.67405 6.94438   1
  10   0   4 1.32174 4.88726   4
  12  -1  -4 4.73512 5.09476   4
 -12   1   4 -9.5237 7.23303   1
 -12   1   4 -3.9823 7.07097   2
  11  -1  -4 1.62319 4.28157   4
 -11   1   4 13.2813 6.02823   2
 -11   1   4 1.26494 5.48361   1
  10  -1  -4 5.70772 4.65972   3
  10  -1  -4 7.44017 3.81638   4
 -10   1   4 1.27241 4.68466   1
 -10   1   4 0.93640 4.17661   2
   9  -1  -4 0.42890 2.80609   4
  -9   1   4 -1.2662 3.93741   1
  -9   1   4 4.93525 3.85100   2
  -9   1   4 1.60903 3.05961   3
   8  -1  -4 4.77271 2.46802   4
  -8   1   4 5.19400 2.53653   3
  -8   1   4 3.60912 3.06708   2
  -8   1   4 -0.6456 4.39881   1
   7  -1  -4 107.698 4.73248   4
  -7   1   4 109.482 5.05939   3
  -7   1   4 100.603 5.59664   1
  -7   1   4 119.460 5.65742   2
   6  -1  -4 369.763 11.8731   1
   6  -1  -4 367.633 10.8369   4
  -6   1   4 373.682 11.6918   2
  -6   1   4 377.262 11.3432   3
   5  -1  -4 437.147 13.0233   1
  -5   1   4 445.969 12.7422   3
  -5   1   4 431.633 12.9835   2
  -5   1   4 439.736 12.0023   4
   4  -1  -4 577.516 15.9666   1
   4  -1  -4 552.431 15.0251   4
  -4   1   4 571.217 16.1217   2
  -4   1   4 579.710 14.9853   4
  -4   1   4 593.052 15.8268   3
   3  -1  -4 139.833 4.68380   1
   3  -1  -4 136.497 3.80473   4
  -3   1   4 130.996 4.58209   3
  -3   1   4 134.929 4.87719   2
  -3   1   4 141.019 3.83839   4
   2  -1  -4 295.740 8.45577   1
  -2   1   4 313.467 8.86998   2
  -2   1   4 299.047 8.55113   3
   1  -1  -4 765.800 19.0533   4
   1  -1  -4 729.582 19.4971   1
  -1   1   4 766.291 18.9227   4
  -1   1   4 747.579 19.5504   3
  -1   1   4 755.836 19.6857   2
   0  -1  -4 642.643 16.7714   1
   0  -1  -4 647.315 16.6288   2
   0  -1  -4 607.284 16.5806   2
   0   1   4 640.547 16.4254   4
   0   1   4 624.687 16.4971   4
   0   1   4 653.580 16.6069   3
  -1  -1  -4 342.138 9.81729   1
  -1  -1  -4 350.490 9.12713   2
   1   1   4 348.761 9.60218   4
   1   1   4 341.593 9.30104   3
   1   1   4 325.210 9.25781   2
  -2  -1  -4 259.405 8.21549   1
  -2  -1  -4 270.060 7.09235   2
   2   1   4 271.939 8.02903   4
   2   1   4 246.543 7.24166   2
   2   1   4 266.967 7.41772   3
  -3  -1  -4 178.477 5.02707   2
  -3  -1  -4 174.098 6.40105   1
   3   1   4 178.736 6.12967   4
   3   1   4 164.426 5.08269   2
   3   1   4 171.105 5.30024   3
  -4  -1  -4 55.0068 2.50956   2
  -4  -1  -4 51.9249 3.53834   1
   4   1   4 57.7743 2.58947   3
   4   1   4 55.5476 3.23544   4
  -5  -1  -4 31.6149 3.79605   1
  -5  -1  -4 32.4594 2.48766   2
   5   1   4 38.8671 2.39270   3
   5   1   4 29.1490 3.39242   4
  -6  -1  -4 9.83358 3.17795   1
  -6  -1  -4 7.14672 2.30796   2
   6   1   4 9.27040 1.78030   3
   6   1   4 6.26810 2.62043   4
  -7  -1  -4 5.37405 2.91443   2
  -7  -1  -4 7.73261 4.16950   1
   7   1   4 2.79194 3.14610   4
   7   1   4 3.01664 2.10124   3
  -8  -1  -4 2.09929 4.25215   1
   8   1   4 -1.9060 3.26960   4
   8   1   4 1.93768 2.92349   3
  -9  -1  -4 -6.3315 4.75063   1
   9   1   4 2.67598 3.98515   4
 -10  -1  -4 12.5849 7.15499   1
  10   1   4 -3.6642 4.14433   4
  12  -2  -4 5.52039 5.03573   4
 -12   2   4 -4.0123 6.57068   2
 -12   2   4 -6.1958 6.56163   1
  11  -2  -4 2.30044 4.41896   4
  11  -2  -4 5.10343 5.17898   3
 -11   2   4 17.3168 5.54873   2
 -11   2   4 0.70200 5.22583   1
  10  -2  -4 10.2021 3.61485   4
 -10   2   4 12.3694 4.97568   1
 -10   2   4 -1.1025 4.17703   2
 -10   2   4 -3.2232 8.49723   3
   9  -2  -4 -0.2836 3.11199   4
  -9   2   4 8.43470 3.67464   2
  -9   2   4 1.95938 3.37332   3
  -9   2   4 2.81421 3.76764   1
  -8   2   4 7.81664 2.69539   3
  -8   2   4 8.85212 2.98067   2
  -8   2   4 4.60599 3.40676   1
   7  -2  -4 139.902 6.16099   1
  -7   2   4 137.353 6.02235   3
  -7   2   4 138.416 5.99577   2
  -7   2   4 133.261 5.42828   4
   6  -2  -4 275.753 9.15695   1
  -6   2   4 283.431 8.58781   4
  -6   2   4 277.675 9.15187   3
  -6   2   4 280.944 9.35727   2
   5  -2  -4 380.809 11.0970   1
  -5   2   4 369.788 10.3785   4
  -5   2   4 360.559 11.0903   3
  -5   2   4 364.194 11.2140   2
   4  -2  -4 126.478 4.02607   4
   4  -2  -4 136.639 4.67720   1
  -4   2   4 134.339 4.94164   3
  -4   2   4 130.921 5.05662   2
  -4   2   4 135.626 4.20657   4
   3  -2  -4 -0.6257 0.50637   4
   3  -2  -4 1.20504 0.74135   1
  -3   2   4 -0.7365 0.66085   4
  -3   2   4 2.00262 0.99293   2
  -3   2   4 -1.0068 0.85167   3
   2  -2  -4 159.588 4.31171   4
   2  -2  -4 156.104 4.76048   1
   2  -2  -4 162.334 5.37128   2
  -2   2   4 160.823 5.14973   3
  -2   2   4 156.832 4.52074   4
   1  -2  -4 343.272 9.22076   1
   1  -2  -4 316.102 8.85586   4
   1  -2  -4 335.770 9.48613   2
  -1   2   4 338.552 9.34553   3
  -1   2   4 336.303 8.77863   4
   0  -2  -4 581.899 15.3912   2
   0  -2  -4 572.859 15.5924   1
   0   2   4 598.639 15.3980   3
   0   2   4 572.166 15.1940   4
  -1  -2  -4 554.180 15.3804   1
  -1  -2  -4 561.823 14.6421   2
   1   2   4 546.944 14.9538   4
   1   2   4 563.774 14.7316   3
  -2  -2  -4 39.7839 2.59138   1
  -2  -2  -4 40.4841 1.84982   2
   2   2   4 43.8154 2.42078   4
   2   2   4 42.7514 1.99573   3
  -3  -2  -4 44.8597 3.01785   1
  -3  -2  -4 42.9112 2.16388   2
   3   2   4 44.1204 2.14377   3
   3   2   4 39.1647 2.50300   4
  -4  -2  -4 39.3756 2.41374   2
   4   2   4 36.3751 2.13556   3
  -5  -2  -4 14.6401 3.39250   1
  -5  -2  -4 10.7932 2.28099   2
   5   2   4 12.3127 2.85364   4
   5   2   4 12.3766 1.76776   3
  -6  -2  -4 9.87515 4.11483   1
  -6  -2  -4 8.12332 2.65405   2
   6   2   4 2.63250 2.52785   4
   6   2   4 9.26554 1.94489   3
  -7  -2  -4 4.62380 4.53130   1
  -7  -2  -4 -3.2584 3.01475   2
   7   2   4 1.71568 2.15857   3
   7   2   4 2.54345 3.30928   4
  -8  -2  -4 -1.0593 5.04981   1
   8   2   4 -3.0781 3.70707   4
  -9  -2  -4 8.56288 7.16057   1
   9   2   4 5.41684 5.12787   4
  12  -3  -4 5.04485 5.94456   3
  12  -3  -4 9.56194 5.24136   4
 -12   3   4 4.65471 5.84642   2
 -12   3   4 -4.8448 6.25322   1
  11  -3  -4 6.41960 4.60037   4
 -11   3   4 22.6815 5.49081   3
 -11   3   4 13.1695 5.78262   1
 -11   3   4 16.7689 5.36909   2
  10  -3  -4 21.2567 4.44789   4
 -10   3   4 26.3129 4.81254   2
 -10   3   4 27.5231 5.00571   1
 -10   3   4 22.4364 4.82236   3
  -9   3   4 5.17573 4.24717   1
  -9   3   4 8.38261 3.29855   4
  -9   3   4 5.44766 3.58665   2
  -9   3   4 3.23036 3.50710   3
   8  -3  -4 6.72394 2.63971   1
  -8   3   4 5.23310 2.46001   4
  -8   3   4 9.22469 3.09165   2
   7  -3  -4 45.6497 3.43705   1
  -7   3   4 42.8420 3.71229   3
  -7   3   4 43.2661 3.25940   4
  -7   3   4 47.0898 3.66148   2
   6  -3  -4 276.962 8.74116   1
  -6   3   4 265.317 9.00911   2
  -6   3   4 263.641 9.03457   3
  -6   3   4 272.915 8.41266   4
   5  -3  -4 532.319 14.6975   1
  -5   3   4 529.084 15.3429   3
  -5   3   4 529.524 14.4882   4
  -5   3   4 532.221 15.2571   2
   4  -3  -4 265.147 8.62849   2
   4  -3  -4 284.367 7.93860   1
  -4   3   4 267.676 8.56707   3
  -4   3   4 272.663 7.79038   4
   3  -3  -4 13.7863 1.55326   2
   3  -3  -4 15.9967 1.16927   1
   3  -3  -4 12.3508 1.04695   4
  -3   3   4 12.6166 1.17438   4
  -3   3   4 16.0574 1.91685   3
   2  -3  -4 133.630 4.18531   1
   2  -3  -4 130.632 4.71710   2
  -2   3   4 139.060 4.00972   4
  -2   3   4 135.407 4.71220   3
   1  -3  -4 292.324 8.50397   2
   1  -3  -4 292.564 8.30831   1
  -1   3   4 288.875 7.98154   4
  -1   3   4 293.250 8.50518   3
   0  -3  -4 748.693 19.4978   2
   0  -3  -4 743.682 19.8096   1
   0   3   4 748.143 19.3491   4
   0   3   4 727.460 19.4602   3
  -1  -3  -4 124.629 4.11983   2
  -1  -3  -4 118.955 4.79056   1
   1   3   4 126.197 4.32320   4
   1   3   4 121.325 4.10813   3
  -2  -3  -4 7.94121 1.33581   2
  -2  -3  -4 8.89838 1.79079   1
   2   3   4 4.07337 1.16001   3
   2   3   4 9.57212 1.70200   4
  -3  -3  -4 9.74471 2.23284   1
  -3  -3  -4 9.20200 1.56475   2
   3   3   4 6.74350 1.75569   4
   3   3   4 7.17595 1.38413   3
  -4  -3  -4 28.2902 4.01245   1
  -4  -3  -4 24.0479 2.21655   2
   4   3   4 25.1540 2.99243   4
   4   3   4 21.0027 2.08938   3
  -5  -3  -4 9.77717 3.70163   1
  -5  -3  -4 12.2444 2.51898   2
   5   3   4 13.3596 3.07104   4
   5   3   4 13.5099 2.05009   3
  -6  -3  -4 11.1622 3.10235   2
  -6  -3  -4 4.52840 4.00296   1
   6   3   4 9.96640 2.23719   3
   6   3   4 4.49543 2.88361   4
  -7  -3  -4 0.79280 3.76577   2
  -7  -3  -4 1.71986 4.92611   1
   7   3   4 0.34863 3.07977   4
  -8  -3  -4 -4.0144 6.13565   1
   8   3   4 1.54548 3.50195   4
  -9  -3  -4 4.30655 7.49760   1
   9   3   4 -9.6409 4.52507   4
  12  -4  -4 10.3918 5.97407   1
  12  -4  -4 6.09496 6.15302   2
  12  -4  -4 -0.5179 5.20697   4
  12  -4  -4 -6.0710 5.78526   3
  11  -4  -4 19.4951 5.20790   1
 -11   4   4 22.7063 5.22597   2
 -11   4   4 21.1477 5.93320   3
 -11   4   4 15.9179 4.91585   4
  10  -4  -4 30.7845 5.21735   1
 -10   4   4 28.9847 4.79370   2
 -10   4   4 16.2957 4.58136   4
 -10   4   4 29.6719 5.51775   3
   9  -4  -4 2.19183 3.63916   1
  -9   4   4 -4.8330 3.05947   4
  -9   4   4 -5.5583 3.33301   3
  -9   4   4 0.34940 2.89528   2
   8  -4  -4 1.99635 2.06510   1
  -8   4   4 4.25899 2.48266   4
  -8   4   4 2.21358 2.87469   3
  -8   4   4 7.02166 2.90814   2
   7  -4  -4 96.1239 4.44691   1
   7  -4  -4 90.7888 4.98552   2
  -7   4   4 99.0783 4.74043   4
  -7   4   4 98.3806 5.26767   3
   6  -4  -4 335.140 10.0066   1
   6  -4  -4 335.709 10.9214   2
  -6   4   4 338.101 10.1882   4
  -6   4   4 341.187 10.9533   3
   5  -4  -4 520.835 13.8818   1
   5  -4  -4 499.967 14.8850   2
  -5   4   4 507.378 15.0116   3
  -5   4   4 511.083 14.0988   4
   4  -4  -4 109.483 3.68187   1
   4  -4  -4 119.195 4.83792   2
  -4   4   4 119.781 4.79703   3
  -4   4   4 116.394 4.10005   4
   3  -4  -4 18.6805 1.86666   2
   3  -4  -4 20.8257 1.30929   1
  -3   4   4 16.4110 1.49300   1
  -3   4   4 20.5699 1.43764   4
  -3   4   4 15.3697 1.81481   3
   2  -4  -4 25.7716 1.95039   2
   2  -4  -4 28.6589 1.66073   1
  -2   4   4 27.5399 2.05946   3
  -2   4   4 28.5452 1.60068   4
   1  -4  -4 323.294 9.39655   2
   1  -4  -4 320.945 9.24189   1
  -1   4   4 322.405 9.43056   3
  -1   4   4 315.007 8.90360   4
   0  -4  -4 229.148 6.92384   2
   0  -4  -4 223.868 7.26492   1
   0   4   4 224.431 6.92380   3
   0   4   4 216.038 6.67210   4
  -1  -4  -4 43.3497 2.86334   1
  -1  -4  -4 46.6528 2.31065   2
   1   4   4 43.0067 2.31784   3
   1   4   4 39.3157 2.28177   4
  -2  -4  -4 20.5532 1.93721   2
  -2  -4  -4 17.7033 2.69316   1
   2   4   4 18.2046 1.83307   3
   2   4   4 15.9463 1.81833   4
  -3  -4  -4 1.36915 1.35692   2
  -3  -4  -4 -0.2667 2.37306   1
   3   4   4 -1.3669 1.30214   3
   3   4   4 0.66695 1.72300   4
  -4  -4  -4 14.1681 3.82507   1
  -4  -4  -4 14.9186 2.41404   2
   4   4   4 20.2996 2.36614   3
   4   4   4 12.6942 2.52199   4
  -5  -4  -4 5.67897 2.79660   2
  -5  -4  -4 4.86707 3.84218   1
   5   4   4 5.71279 2.74679   4
   5   4   4 11.7195 2.12005   3
  -6  -4  -4 -0.0458 4.17400   1
  -6  -4  -4 4.66057 3.81382   2
   6   4   4 4.63051 3.00463   4
  -7  -4  -4 -0.0930 4.96638   2
  -7  -4  -4 -1.6845 5.24248   1
   7   4   4 2.35763 3.23358   4
  -8  -4  -4 5.30596 6.74318   1
   8   4   4 -3.5012 3.41317   4
  13  -5  -4 5.18145 6.52356   3
  13  -5  -4 8.36348 6.41741   2
  13  -5  -4 -3.4501 6.12488   1
  13  -5  -4 11.5144 6.99491   4
  12  -5  -4 7.21802 5.31122   1
  12  -5  -4 9.15673 5.61510   2
  12  -5  -4 8.51911 5.94556   3
 -12   5   4 7.34093 5.66589   4
  11  -5  -4 12.2536 4.66766   1
  11  -5  -4 16.2185 4.98072   2
 -11   5   4 11.8824 5.62464   3
 -11   5   4 7.55298 5.01808   4
  10  -5  -4 26.9745 4.31261   1
  10  -5  -4 32.4885 4.84367   2
 -10   5   4 29.2324 4.86112   4
 -10   5   4 29.2580 5.49942   3
   9  -5  -4 2.34561 3.20326   2
   9  -5  -4 -5.0324 2.49138   1
  -9   5   4 -0.4186 3.55517   3
  -9   5   4 2.61630 3.42701   4
   8  -5  -4 24.6092 3.07421   1
   8  -5  -4 24.2626 3.79456   2
  -8   5   4 17.6472 3.97662   3
  -8   5   4 21.0833 2.96029   4
   7  -5  -4 108.277 4.43344   1
  -7   5   4 110.897 5.02690   4
  -7   5   4 105.068 5.78926   3
   6  -5  -4 155.364 6.23405   2
   6  -5  -4 154.324 5.22856   1
  -6   5   4 170.176 6.67043   3
  -6   5   4 157.688 5.91911   4
   5  -5  -4 180.666 5.38840   1
   5  -5  -4 184.864 6.76262   2
  -5   5   4 184.920 6.22731   4
  -5   5   4 179.331 6.88901   3
   4  -5  -4 179.201 6.35994   2
   4  -5  -4 185.224 5.10030   1
  -4   5   4 174.413 6.48336   3
  -4   5   4 167.037 5.30580   1
  -4   5   4 175.334 5.81245   4
   3  -5  -4 2.58677 0.89864   1
   3  -5  -4 4.30629 1.36900   2
  -3   5   4 2.94296 1.23276   4
  -3   5   4 3.67685 1.06562   1
  -3   5   4 4.48510 1.51890   3
   2  -5  -4 0.43786 1.11902   1
   2  -5  -4 1.55622 1.26823   2
  -2   5   4 2.67654 1.11653   4
  -2   5   4 0.32859 1.27103   3
   1  -5  -4 311.661 9.22989   1
   1  -5  -4 307.255 9.32947   2
  -1   5   4 312.797 9.46010   3
  -1   5   4 310.567 8.94328   4
   0  -5  -4 101.496 4.45775   1
   0  -5  -4 98.6171 3.96125   2
   0   5   4 103.091 3.85264   4
   0   5   4 103.989 4.08928   3
  -1  -5  -4 76.7336 4.18129   1
  -1  -5  -4 74.7992 3.32558   2
   1   5   4 73.9736 3.49602   3
   1   5   4 74.1928 3.28992   4
  -2  -5  -4 13.5281 1.87973   2
  -2  -5  -4 14.5743 2.51941   1
   2   5   4 11.4534 1.99782   3
   2   5   4 15.3388 2.23940   4
  -3  -5  -4 -0.0518 1.73596   2
  -3  -5  -4 2.20538 3.33596   1
   3   5   4 -0.3759 1.75803   3
   3   5   4 0.85230 1.90731   4
  -4  -5  -4 8.23295 2.68454   2
  -4  -5  -4 6.49025 4.23843   1
   4   5   4 7.06816 2.15200   3
   4   5   4 3.70757 2.46735   4
  -5  -5  -4 7.85088 4.71057   1
  -5  -5  -4 -0.2969 3.13256   2
   5   5   4 3.76636 3.01830   4
  -6  -5  -4 -2.8775 4.92026   1
  -6  -5  -4 3.61415 3.99247   2
   6   5   4 2.02451 2.75653   4
  -7  -5  -4 7.03671 5.21779   2
  -7  -5  -4 13.9552 6.94729   1
   7   5   4 -0.3588 4.05846   4
   8   5   4 -4.7380 3.83636   4
  13  -6  -4 6.94711 7.30316   3
  13  -6  -4 11.2994 7.78089   1
  13  -6  -4 8.02434 6.42622   2
 -13   6   4 -9.3615 6.22676   4
  12  -6  -4 1.62119 4.70498   1
  12  -6  -4 0.18792 5.68954   2
 -12   6   4 -1.1503 7.01628   3
 -12   6   4 8.58302 5.70767   4
  11  -6  -4 16.0732 5.05455   1
  11  -6  -4 10.1263 5.09261   2
 -11   6   4 15.7274 5.07632   4
 -11   6   4 13.4855 5.83981   3
  10  -6  -4 25.1280 3.92326   1
  10  -6  -4 19.8883 4.47231   2
 -10   6   4 17.8751 4.58170   3
 -10   6   4 13.5292 4.50690   4
   9  -6  -4 16.1481 3.99488   2
   9  -6  -4 18.2978 2.94533   1
  -9   6   4 10.9976 4.37897   3
  -9   6   4 11.7799 3.94621   4
   8  -6  -4 9.97986 4.56734   2
   8  -6  -4 8.16171 2.04281   1
  -8   6   4 7.87134 3.07573   4
  -8   6   4 4.39301 3.13096   3
   7  -6  -4 31.1348 3.77523   2
   7  -6  -4 31.4907 2.42085   1
  -7   6   4 38.6955 3.33850   4
  -7   6   4 36.6028 5.04326   3
   6  -6  -4 151.008 4.72765   1
   6  -6  -4 155.214 7.12979   2
  -6   6   4 167.447 6.00285   4
  -6   6   4 143.992 6.63561   3
   5  -6  -4 161.815 5.17883   1
   5  -6  -4 168.056 4.86191   1
   5  -6  -4 181.420 6.65309   2
  -5   6   4 179.731 6.13792   4
  -5   6   4 168.176 6.73800   3
   4  -6  -4 106.163 3.33461   1
   4  -6  -4 103.999 4.53711   2
  -4   6   4 107.198 4.87789   3
  -4   6   4 109.543 4.28345   4
  -4   6   4 100.172 3.44294   1
   3  -6  -4 14.2595 1.61271   1
   3  -6  -4 19.1620 2.39404   2
  -3   6   4 14.0282 1.97563   4
  -3   6   4 17.0356 2.38430   3
  -3   6   4 12.3226 1.61051   1
   2  -6  -4 0.67869 1.39056   1
   2  -6  -4 1.03386 1.35909   2
  -2   6   4 2.59583 1.55881   3
  -2   6   4 1.00896 1.13175   4
   1  -6  -4 128.497 4.82478   2
   1  -6  -4 121.690 4.89285   1
  -1   6   4 122.896 5.01043   3
  -1   6   4 121.715 4.49904   4
   0  -6  -4 74.6698 4.01406   1
   0  -6  -4 74.1099 3.46306   2
   0   6   4 75.5145 3.34774   4
   0   6   4 75.4821 3.82797   3
  -1  -6  -4 29.8497 3.45534   1
  -1  -6  -4 24.9262 2.29370   2
   1   6   4 24.6615 2.68698   4
   1   6   4 25.6811 2.83599   3
  -2  -6  -4 6.47543 2.14816   2
  -2  -6  -4 7.70169 3.32779   1
   2   6   4 5.18750 2.00778   3
   2   6   4 6.02865 2.11097   4
  -3  -6  -4 2.17049 3.60295   1
  -3  -6  -4 -1.1586 2.05418   2
   3   6   4 -3.8479 2.24577   3
   3   6   4 0.48902 2.15901   4
  -4  -6  -4 3.29575 3.06056   2
  -4  -6  -4 -0.0364 4.31704   1
   4   6   4 0.80535 2.30106   4
  -5  -6  -4 0.94332 3.54203   2
  -5  -6  -4 3.25549 5.52697   1
   5   6   4 1.53317 2.73213   4
  -6  -6  -4 8.05018 6.50215   1
  -6  -6  -4 -2.5456 4.56331   2
   6   6   4 4.32513 3.21412   4
  -7  -6  -4 6.72135 8.08862   1
  -7  -6  -4 -10.965 5.79076   2
   7   6   4 4.26758 3.65514   4
  13  -7  -4 -14.593 7.05137   3
  13  -7  -4 -10.425 5.98379   2
 -13   7   4 0.17862 6.59268   4
  12  -7  -4 1.09490 5.34027   2
 -12   7   4 3.40989 7.71230   3
 -12   7   4 -1.7501 5.61055   4
  11  -7  -4 9.34918 5.05609   1
  11  -7  -4 5.79519 4.77343   2
 -11   7   4 9.70522 4.94189   4
 -11   7   4 7.83864 5.73063   3
  10  -7  -4 15.4194 3.47723   1
  10  -7  -4 17.3251 4.22183   2
 -10   7   4 11.3505 4.63416   3
 -10   7   4 17.6085 5.17808   4
   9  -7  -4 20.0960 4.16031   2
   9  -7  -4 16.7818 2.72683   1
  -9   7   4 29.8153 4.63255   4
  -9   7   4 16.3970 4.21721   3
   8  -7  -4 4.34475 3.18663   2
   8  -7  -4 3.58262 1.74710   1
  -8   7   4 2.30544 3.27359   3
  -8   7   4 8.14834 3.21169   4
   7  -7  -4 12.5912 1.59658   1
   7  -7  -4 15.1786 5.32033   2
  -7   7   4 11.6316 2.94684   4
  -7   7   4 9.04297 3.02585   3
   6  -7  -4 100.239 5.23047   2
  -6   7   4 87.9962 5.33522   3
  -6   7   4 108.622 5.02966   4
   5  -7  -4 118.682 5.41972   2
  -5   7   4 112.018 4.82126   4
  -5   7   4 102.275 5.90097   3
   4  -7  -4 48.2823 3.61830   2
   4  -7  -4 41.0462 2.88645   1
  -4   7   4 51.6502 3.17090   4
  -4   7   4 51.6136 3.60842   3
  -4   7   4 48.7610 2.03704   1
   3  -7  -4 58.2861 4.33118   2
   3  -7  -4 67.3008 2.94947   1
  -3   7   4 70.3981 4.07576   3
  -3   7   4 63.5013 2.75741   1
  -3   7   4 69.9065 3.51573   4
   2  -7  -4 -0.8485 1.61274   1
   2  -7  -4 1.40886 1.66650   2
  -2   7   4 0.44983 1.81680   3
  -2   7   4 0.54183 1.41340   4
   1  -7  -4 38.3099 3.28620   1
   1  -7  -4 34.9656 2.74836   2
  -1   7   4 44.5818 3.21843   3
  -1   7   4 30.0882 3.00054   4
   0  -7  -4 36.6133 3.03318   2
   0  -7  -4 32.4920 3.63945   1
   0   7   4 38.5386 3.35550   3
   0   7   4 32.2587 2.82086   4
  -1  -7  -4 11.8182 4.78119   2
  -1  -7  -4 8.41242 3.36589   1
   1   7   4 10.8010 2.42567   4
   1   7   4 10.7363 2.55652   3
  -2  -7  -4 1.58718 2.40136   2
   2   7   4 -0.5122 2.19305   4
   2   7   4 3.27287 2.35606   3
  -3  -7  -4 -0.1638 2.40678   2
  -3  -7  -4 -4.4588 4.19654   1
   3   7   4 -0.5586 2.33586   4
  -4  -7  -4 2.83946 3.39424   2
  -4  -7  -4 7.59799 5.18740   1
   4   7   4 -0.0150 2.59321   4
  -5  -7  -4 0.19896 4.24565   2
  -5  -7  -4 11.9433 7.18635   1
   5   7   4 -2.4478 2.95001   4
  -6  -7  -4 -4.0424 5.51562   2
   6   7   4 -0.0464 3.24796   4
  12  -8  -4 1.15642 5.30705   2
 -12   8   4 -2.8091 7.58334   3
 -12   8   4 3.15540 6.12305   4
  11  -8  -4 0.77008 4.70173   2
 -11   8   4 5.45617 6.13064   3
 -11   8   4 5.99516 5.06335   4
  10  -8  -4 8.42869 4.18230   2
 -10   8   4 10.7879 5.01248   3
 -10   8   4 18.1097 4.69926   4
   9  -8  -4 12.7526 4.07209   2
  -9   8   4 11.1980 4.12013   4
  -9   8   4 3.98420 4.06700   3
   8  -8  -4 2.37715 2.93073   2
  -8   8   4 2.38773 4.22415   4
  -8   8   4 3.82729 3.43204   3
   7  -8  -4 -0.1080 2.57354   2
  -7   8   4 3.27131 3.25592   4
  -7   8   4 0.53392 2.76460   3
   6  -8  -4 32.7830 3.72766   2
  -6   8   4 37.3604 4.44545   3
  -6   8   4 34.2066 3.98856   4
   5  -8  -4 77.0860 4.56938   2
  -5   8   4 82.3632 5.33641   3
   4  -8  -4 52.4951 4.28381   2
  -4   8   4 50.9519 4.31320   4
  -4   8   4 60.5189 5.00951   3
   3  -8  -4 5.44895 2.87365   2
   3  -8  -4 6.01870 1.92646   1
  -3   8   4 -0.7954 2.26959   3
  -3   8   4 4.36507 2.22905   4
   2  -8  -4 6.45786 1.98123   2
   2  -8  -4 7.05644 2.43485   1
  -2   8   4 1.84563 2.38890   3
  -2   8   4 4.96964 2.20174   4
   1  -8  -4 8.63521 2.83219   1
   1  -8  -4 3.04729 2.11414   2
  -1   8   4 5.91278 2.17871   4
  -1   8   4 6.39042 2.58262   3
   0  -8  -4 11.8072 2.53612   2
   0  -8  -4 10.7393 3.61094   1
   0   8   4 14.3851 3.00288   3
   0   8   4 7.50649 2.43741   4
  -1  -8  -4 7.07451 2.57015   2
  -1  -8  -4 7.41153 3.98604   1
   1   8   4 8.98952 2.44437   4
   1   8   4 11.4209 2.81193   3
  -2  -8  -4 -2.0202 2.49931   2
  -2  -8  -4 2.96539 4.65929   1
   2   8   4 -3.9427 2.15061   4
  -3  -8  -4 -3.7322 3.08515   2
  -3  -8  -4 10.8217 5.87754   1
   3   8   4 -1.4724 2.71967   4
  -4  -8  -4 5.02037 3.74367   2
  -4  -8  -4 -2.4649 6.78799   1
   4   8   4 -5.3744 2.94893   4
  -5  -8  -4 7.26554 8.26558   1
  -5  -8  -4 -0.7516 5.02039   2
   5   8   4 1.01786 3.70127   4
  12  -9  -4 -8.7427 5.36725   2
 -12   9   4 -7.0197 7.39716   3
 -12   9   4 9.63365 6.35170   4
  11  -9  -4 -5.2891 4.78051   2
 -11   9   4 10.2169 5.21481   4
 -11   9   4 6.77686 6.21197   3
  10  -9  -4 6.04061 4.00244   2
 -10   9   4 6.18432 4.84415   4
 -10   9   4 2.09965 4.75446   3
   9  -9  -4 3.01360 3.59079   2
  -9   9   4 4.75115 4.47202   4
  -9   9   4 5.49458 4.42145   3
   8  -9  -4 4.02235 3.22586   2
  -8   9   4 0.41992 3.67885   3
  -8   9   4 5.12526 4.02350   4
   7  -9  -4 3.60162 2.79191   2
  -7   9   4 4.62446 3.48185   4
  -7   9   4 2.21600 3.53786   3
   6  -9  -4 31.2762 4.07823   2
  -6   9   4 25.6484 4.23439   3
  -6   9   4 28.1798 3.86761   4
   5  -9  -4 24.0767 3.61373   2
  -5   9   4 24.4906 4.01150   3
  -5   9   4 25.3581 3.69245   4
   4  -9  -4 9.87185 2.54164   2
  -4   9   4 10.5988 3.20630   3
  -4   9   4 8.71810 2.80971   4
   3  -9  -4 0.37645 2.17037   1
   3  -9  -4 1.52904 2.24261   2
  -3   9   4 0.48278 2.19045   4
  -3   9   4 0.55570 3.00029   3
   2  -9  -4 -1.5029 2.00477   2
   2  -9  -4 3.86030 2.75719   1
  -2   9   4 1.65524 2.22496   4
  -2   9   4 0.00739 3.00270   3
   1  -9  -4 0.41489 2.28972   2
   1  -9  -4 2.18800 3.16979   1
  -1   9   4 1.40611 3.36742   3
  -1   9   4 -0.7575 2.07225   4
   0  -9  -4 18.1148 3.01311   2
   0  -9  -4 17.5260 4.65478   1
   0   9   4 17.4961 3.01850   4
   0   9   4 10.9473 3.47450   3
  -1  -9  -4 5.11269 4.82955   1
  -1  -9  -4 3.83143 2.76807   2
   1   9   4 0.70696 2.54655   4
  -2  -9  -4 -2.5172 2.85828   2
  -2  -9  -4 2.82742 5.27838   1
   2   9   4 -0.1931 2.78477   4
  -3  -9  -4 -3.1418 3.66632   2
  -3  -9  -4 10.8571 6.77845   1
   3   9   4 -0.3230 3.07561   4
  -4  -9  -4 -6.4161 7.44378   1
  -4  -9  -4 5.61787 5.07004   2
   4   9   4 3.27036 3.83037   4
  12 -10  -4 2.59662 5.61539   2
 -12  10   4 -9.8619 7.72102   3
 -12  10   4 -6.7622 6.46196   4
  11 -10  -4 9.61417 4.79519   2
 -11  10   4 5.07128 6.16770   4
 -11  10   4 -3.3798 9.44789   3
  10 -10  -4 -0.7271 4.20295   2
 -10  10   4 6.56671 5.08392   3
 -10  10   4 13.8323 5.09910   4
   9 -10  -4 9.05899 3.72421   2
  -9  10   4 9.90908 4.90285   4
  -9  10   4 3.98951 3.88265   3
   8 -10  -4 0.27332 2.78567   2
  -8  10   4 1.91244 3.87538   4
  -8  10   4 -0.1789 3.69944   3
   7 -10  -4 -1.9081 2.69760   2
  -7  10   4 -0.0839 3.51556   4
  -7  10   4 -0.8195 3.46670   3
   6 -10  -4 17.3292 3.73365   2
  -6  10   4 20.9383 4.09976   4
  -6  10   4 11.3117 4.04577   3
   5 -10  -4 6.36637 2.89943   2
  -5  10   4 3.25650 3.32320   4
  -5  10   4 5.23125 3.39374   3
   4 -10  -4 5.11670 2.75791   2
  -4  10   4 8.94493 3.23585   4
  -4  10   4 10.7356 3.51279   3
   3 -10  -4 3.02140 2.51071   2
  -3  10   4 3.18294 3.85056   3
  -3  10   4 6.70145 2.94143   4
   2 -10  -4 1.04978 2.33540   2
   2 -10  -4 -0.7203 3.33883   1
  -2  10   4 2.47975 2.78308   4
  -2  10   4 -4.9063 3.39409   3
   1 -10  -4 2.76250 3.96072   1
   1 -10  -4 3.29725 2.32294   2
  -1  10   4 -4.4178 3.40340   3
  -1  10   4 -2.5078 2.36500   4
   0 -10  -4 8.50274 3.15344   2
   0 -10  -4 10.3119 5.63445   1
   0  10   4 5.75865 3.05472   4
   0  10   4 5.93630 5.54177   3
  -1 -10  -4 1.80632 5.50284   1
  -1 -10  -4 -4.0679 3.18986   2
   1  10   4 -2.8613 3.11207   4
  -2 -10  -4 1.90594 3.12020   2
  -2 -10  -4 3.24385 7.25397   1
   2  10   4 -2.6949 3.17781   4
  -3 -10  -4 5.48227 4.44981   2
  -3 -10  -4 -0.7855 8.08290   1
   3  10   4 1.77662 3.70254   4
  11 -11  -4 -5.6361 4.51689   2
 -11  11   4 9.45221 6.54810   4
 -11  11   4 9.38018 7.04913   3
  10 -11  -4 -2.6446 3.87341   2
 -10  11   4 -0.3893 5.56953   3
 -10  11   4 7.49345 6.15366   4
   9 -11  -4 0.23926 4.11975   2
  -9  11   4 -2.8102 5.24733   4
  -9  11   4 -3.0090 4.33608   3
   8 -11  -4 -2.0281 3.32244   2
  -8  11   4 1.55394 4.15440   3
  -8  11   4 8.40158 4.89782   4
   7 -11  -4 0.54754 3.28903   2
  -7  11   4 5.04894 4.10066   4
  -7  11   4 -3.9180 4.18464   3
   6 -11  -4 1.51848 2.86399   2
  -6  11   4 1.27556 3.70158   4
  -6  11   4 0.24196 4.28418   3
   5 -11  -4 8.36045 3.15224   2
  -5  11   4 1.03416 4.29933   3
  -5  11   4 3.41289 3.37178   4
   4 -11  -4 -0.7565 2.57282   2
  -4  11   4 4.58332 3.31804   4
  -4  11   4 3.57358 4.39096   3
   3 -11  -4 -3.3802 2.18088   2
  -3  11   4 3.49355 3.21441   4
  -3  11   4 2.64857 4.86737   3
   2 -11  -4 1.89134 2.69141   2
  -2  11   4 6.00525 3.18979   4
  -2  11   4 -3.9900 4.98205   3
   1 -11  -4 -1.7474 3.09885   2
  -1  11   4 -1.3205 2.98412   4
  -1  11   4 5.00928 5.88823   3
   0 -11  -4 -9.5541 5.91504   1
   0 -11  -4 1.55358 3.34305   2
   0  11   4 -4.2935 3.10474   4
  -1 -11  -4 -2.0282 3.51988   2
  -1 -11  -4 -11.190 7.07627   1
  -2 -11  -4 -13.823 8.02026   1
  -2 -11  -4 -1.5629 4.28489   2
   2  11   4 -0.5170 3.58494   4
 -11  12   4 14.1753 10.5997   4
 -11  12   4 -7.5519 7.04549   3
  10 -12  -4 -7.5248 4.78114   2
 -10  12   4 4.57944 5.99960   3
 -10  12   4 1.82628 5.92031   4
   9 -12  -4 4.24361 3.92999   2
  -9  12   4 -0.1352 5.44170   4
  -9  12   4 3.68083 5.84865   3
   8 -12  -4 1.31660 3.73165   2
  -8  12   4 4.82717 5.19713   3
  -8  12   4 4.65891 5.46402   4
   7 -12  -4 0.47842 3.20407   2
  -7  12   4 1.61987 4.48999   3
  -7  12   4 3.94709 4.36967   4
   6 -12  -4 5.12158 3.14333   2
  -6  12   4 5.06709 3.87714   4
  -6  12   4 -2.1056 4.81240   3
   5 -12  -4 0.04641 2.69779   2
  -5  12   4 1.95155 4.02089   4
  -5  12   4 5.48732 5.33777   3
   4 -12  -4 0.28834 2.54115   2
  -4  12   4 -7.3323 4.81040   3
  -4  12   4 -2.0377 3.14877   4
   3 -12  -4 3.31258 3.06717   2
  -3  12   4 -1.4807 5.24717   3
  -3  12   4 -3.8939 3.63347   4
   2 -12  -4 1.51113 3.27087   2
  -2  12   4 -6.6971 5.22100   3
  -2  12   4 5.37427 3.75005   4
   1 -12  -4 -1.8801 3.35565   2
  -1  12   4 1.41703 3.72429   4
   0 -12  -4 -1.7031 4.08152   2
   0  12   4 -0.8231 3.47161   4
   9 -13  -4 -5.9381 4.48538   2
  -9  13   4 1.86489 5.83584   3
  -9  13   4 -1.8240 6.25106   4
  -8  13   4 1.26356 5.82383   3
  -8  13   4 4.35891 6.27813   4
   7 -13  -4 2.47987 3.72903   2
  -7  13   4 1.03548 5.46914   4
  -7  13   4 2.16235 6.10628   3
   6 -13  -4 -2.7157 3.37033   2
  -6  13   4 7.30918 5.03364   4
  -6  13   4 -2.8017 5.52180   3
   5 -13  -4 -1.9071 5.68842   2
  -5  13   4 1.41082 5.87391   3
  -5  13   4 -4.6042 4.30602   4
   4 -13  -4 2.56449 3.93116   2
  -4  13   4 2.69715 6.27261   3
  -4  13   4 -0.4730 4.33898   4
   3 -13  -4 4.11693 3.55299   2
  -3  13   4 -3.8072 7.49032   4
  -3  13   4 17.2688 8.31291   3
   2 -13  -4 -7.0801 3.64191   2
  -2  13   4 -1.6770 4.07756   4
   7 -14  -4 1.32910 4.03584   2
  -7  14   4 0.49270 6.18890   4
   6 -14  -4 16.4502 4.41644   2
  -6  14   4 5.03389 6.61878   3
  -6  14   4 -1.2046 5.33482   4
   5 -14  -4 6.70202 3.29646   2
  -5  14   4 2.00289 7.03935   3
  -5  14   4 -1.2721 5.02053   4
   0  13  -5 -1.7800 4.60243   4
   0 -13   5 0.52920 4.62518   2
  -1  13  -5 -0.8241 4.88981   4
   1 -13   5 4.45438 4.42065   2
   2 -13   5 -2.6997 4.24505   2
  -3  13  -5 0.53163 5.99509   4
   3 -13   5 -5.2326 4.09205   2
   3 -13   5 -1.3635 5.15460   3
  -4  13  -5 -6.8562 8.14616   4
   4 -13   5 -3.8925 4.66419   3
   4 -13   5 2.15390 4.33544   2
  -5  13  -5 2.11437 11.1324   4
   5 -13   5 6.80097 5.15205   3
   5 -13   5 -3.3578 3.96616   2
  -6  13  -5 -2.2983 5.86446   4
   6 -13   5 -5.5184 5.13028   3
   6 -13   5 1.28008 4.67602   2
  -7  13  -5 -1.1300 6.41544   4
   7 -13   5 -9.1012 10.9371   3
   7 -13   5 -0.0656 4.60630   2
  -8  13  -5 -7.5136 6.59596   4
   8 -13   5 -6.3884 4.85290   3
   2  12  -5 -5.3301 7.19762   1
   2  12  -5 -2.8597 4.78410   4
  -2 -12   5 -2.4890 4.36420   2
   1  12  -5 8.87853 6.39380   1
   1  12  -5 3.24000 4.25100   4
  -1 -12   5 4.72688 4.40446   2
   0  12  -5 -1.0088 5.39314   1
   0  12  -5 3.89967 4.30745   4
   0 -12   5 1.12200 4.11424   2
  -1  12  -5 8.26533 5.04684   1
  -1  12  -5 3.40711 3.80279   4
   1 -12   5 2.31638 4.30984   2
  -2  12  -5 -0.6733 4.02547   4
   2 -12   5 3.55492 3.50372   2
   2 -12   5 -1.5431 3.74746   3
  -3  12  -5 -4.9506 4.15221   4
   3 -12   5 -6.0613 4.02016   3
   3 -12   5 -0.1066 3.39641   2
  -4  12  -5 4.87096 4.55670   4
   4 -12   5 -7.7079 3.56514   3
   4 -12   5 -4.7706 3.51117   2
  -5  12  -5 -1.8318 4.92268   4
   5 -12   5 -4.7928 3.95143   3
   5 -12   5 1.20125 3.72146   2
  -6  12  -5 2.02996 5.26275   4
   6 -12   5 -1.5381 4.30471   3
   6 -12   5 2.01341 3.72748   2
  -7  12  -5 -9.0518 5.23487   4
   7 -12   5 -8.5625 4.12083   2
   7 -12   5 2.10956 4.48689   3
  -8  12  -5 3.81391 6.03779   4
   8 -12   5 -3.5123 4.81259   3
  -9  12  -5 -8.1409 5.95893   4
   9 -12   5 -5.0522 4.55008   3
   3  11  -5 7.70074 4.22686   4
   3  11  -5 10.5905 6.96496   1
  -3 -11   5 2.58298 4.64347   2
   2  11  -5 -0.4326 3.59134   4
   2  11  -5 -8.1205 5.66777   1
  -2 -11   5 4.13535 4.20352   2
   1  11  -5 -0.4359 3.47735   4
   1  11  -5 3.83660 5.45999   1
  -1 -11   5 1.96335 3.82188   2
   0  11  -5 1.99077 3.48901   4
   0  11  -5 1.52425 4.77369   1
   0 -11   5 -2.7742 3.50485   2
  -1  11  -5 14.2444 4.59390   1
  -1  11  -5 1.92656 3.84206   4
   1 -11   5 4.34597 3.50138   2
   1 -11   5 3.66643 3.44443   3
  -2  11  -5 1.07505 3.41500   4
  -2  11  -5 4.54545 3.56543   1
   2 -11   5 -2.4746 3.28045   3
   2 -11   5 1.05762 3.27679   2
  -3  11  -5 0.42305 3.45392   1
  -3  11  -5 -4.0125 3.67338   4
   3 -11   5 -0.7586 3.11018   3
   3 -11   5 -0.3306 3.20779   2
  -4  11  -5 0.25166 3.94508   4
   4 -11   5 -0.4790 3.12271   2
   4 -11   5 -2.3135 3.01400   3
  -5  11  -5 5.34150 4.30152   4
   5 -11   5 -0.3130 3.43466   3
   5 -11   5 2.54280 3.11049   2
  -6  11  -5 4.54607 4.53387   4
   6 -11   5 -4.3532 3.66140   3
   6 -11   5 -7.6263 3.29555   2
  -7  11  -5 -1.4327 4.47767   4
   7 -11   5 -4.6247 3.70407   2
   7 -11   5 2.80609 3.70540   3
  -8  11  -5 5.38344 4.93635   4
   8 -11   5 -5.0661 3.75116   3
  -9  11  -5 2.37758 5.38469   4
   9 -11   5 3.48510 4.45005   3
 -10  11  -5 -2.4303 5.62815   4
  10 -11   5 -3.6830 4.52124   3
   4  10  -5 3.72378 4.15622   4
   4  10  -5 0.22412 6.01433   1
  -4 -10   5 -1.4015 4.63178   2
   3  10  -5 3.04117 5.64685   1
   3  10  -5 -3.5092 3.85943   4
  -3 -10   5 0.15257 3.38695   2
   2  10  -5 1.95394 4.93647   1
   2  10  -5 9.43036 3.67182   4
  -2 -10   5 0.90708 2.95495   2
   1  10  -5 -4.6918 3.00753   4
   1  10  -5 -0.5245 4.44348   1
  -1 -10   5 6.91940 3.40369   2
   0  10  -5 4.88925 3.29558   4
   0 -10   5 4.70119 3.28817   2
   0 -10   5 -0.3701 2.60987   3
  -1  10  -5 -1.2926 2.98802   4
   1 -10   5 4.51790 2.76403   2
   1 -10   5 6.70860 2.91405   3
  -2  10  -5 8.92202 3.10429   1
  -2  10  -5 4.47498 3.14723   4
   2 -10   5 7.18326 2.87484   2
   2 -10   5 1.20445 2.92880   3
  -3  10  -5 1.74378 3.46364   4
  -3  10  -5 2.27554 2.92595   1
   3 -10   5 -4.7486 2.69071   2
   3 -10   5 -1.5965 2.98237   3
  -4  10  -5 1.64154 2.77962   1
  -4  10  -5 2.71021 3.30848   4
   4 -10   5 3.12147 2.50159   2
   4 -10   5 -0.0068 3.08274   3
  -5  10  -5 11.1981 4.46675   4
  -5  10  -5 -1.5086 2.92207   1
   5 -10   5 -0.8262 3.20214   3
   5 -10   5 -1.0710 3.09628   2
  -6  10  -5 1.25491 3.67267   1
  -6  10  -5 -0.8857 3.74428   4
   6 -10   5 1.13938 3.01519   3
   6 -10   5 -0.3963 2.96918   2
  -7  10  -5 5.51813 4.25204   4
   7 -10   5 -3.6965 3.51703   2
   7 -10   5 -1.0213 3.35552   3
  -8  10  -5 0.42789 4.21352   4
   8 -10   5 -0.8709 3.44758   3
  -9  10  -5 8.73788 5.64270   4
   9 -10   5 -2.3878 3.87582   3
 -10  10  -5 4.37351 5.87479   4
  10 -10   5 -5.1944 4.37452   3
   6   9  -5 -6.5943 5.57231   4
  -6  -9   5 -0.1502 4.83304   2
   5   9  -5 0.82595 5.89162   1
   5   9  -5 3.71019 3.78566   4
  -5  -9   5 -1.1759 5.53517   2
   4   9  -5 -7.0134 3.08004   4
   4   9  -5 0.42328 5.23675   1
  -4  -9   5 0.24980 3.99653   2
   3   9  -5 1.91350 3.06524   4
   3   9  -5 1.29380 4.68518   1
  -3  -9   5 -2.6281 2.79330   2
   2   9  -5 9.35640 4.23562   1
   2   9  -5 5.38731 2.81454   4
  -2  -9   5 -0.4628 2.69692   2
   1   9  -5 1.12942 2.86727   4
   1   9  -5 -3.8296 3.64988   1
  -1  -9   5 0.85937 2.88653   2
  -1  -9   5 -0.0902 1.98925   3
   0   9  -5 13.4945 3.58133   1
   0   9  -5 9.49608 3.21793   4
   0  -9   5 10.9449 3.18640   2
   0  -9   5 12.5221 2.33260   3
  -1   9  -5 10.1067 2.97421   1
  -1   9  -5 9.85075 3.07900   4
   1  -9   5 13.0779 2.47903   3
   1  -9   5 12.3737 2.91126   2
  -2   9  -5 6.25435 2.92507   4
  -2   9  -5 9.22476 2.62494   1
   2  -9   5 8.90905 2.86528   3
   2  -9   5 8.90505 2.47492   2
  -3   9  -5 0.86160 2.46323   1
  -3   9  -5 -2.1957 2.92348   4
  -4   9  -5 2.84712 2.53590   1
  -4   9  -5 8.20640 3.73882   4
   4  -9   5 -2.5449 2.56182   3
   4  -9   5 0.77495 2.28522   2
  -5   9  -5 1.10079 2.52200   1
  -5   9  -5 -1.6825 3.27647   4
   5  -9   5 3.37295 2.40764   2
   5  -9   5 0.43572 2.71997   3
  -6   9  -5 6.85476 4.01307   4
  -6   9  -5 13.1103 3.36958   1
   6  -9   5 6.13063 2.80459   3
   6  -9   5 15.0482 2.68862   2
  -7   9  -5 5.56535 3.70072   4
  -7   9  -5 0.14797 4.04912   1
   7  -9   5 3.57137 2.88633   3
   7  -9   5 4.66090 2.68382   2
  -8   9  -5 -6.4531 5.01472   1
  -8   9  -5 -1.9202 4.16012   4
   8  -9   5 -0.8539 3.07676   3
  -9   9  -5 9.46593 5.21835   4
  -9   9  -5 -5.8808 6.81362   1
   9  -9   5 -2.2707 3.74272   3
 -10   9  -5 8.94537 5.80441   4
  10  -9   5 -0.6409 4.86442   3
   7   8  -5 -2.1581 4.10107   4
  -7  -8   5 -7.9811 5.44390   2
   6   8  -5 -3.0800 3.41659   4
   6   8  -5 1.69607 5.32691   1
  -6  -8   5 9.07010 8.25043   2
   5   8  -5 1.78153 4.46748   1
   5   8  -5 -0.3512 2.87533   4
  -5  -8   5 -1.6240 4.02417   2
   4   8  -5 5.67634 2.66974   4
   4   8  -5 2.95118 3.93425   1
  -4  -8   5 3.62391 3.25048   2
   3   8  -5 -0.9034 4.00144   1
   3   8  -5 0.16186 2.56267   4
  -3  -8   5 3.05589 3.15318   2
   2   8  -5 1.79753 3.17961   1
   2   8  -5 0.87765 2.28345   4
  -2  -8   5 2.26792 1.62433   3
  -2  -8   5 -0.6042 2.66591   2
   1   8  -5 -3.1576 2.88664   1
   1   8  -5 1.99889 2.46298   4
  -1  -8   5 -0.6469 1.77467   3
  -1  -8   5 0.64031 2.72121   2
   0   8  -5 25.1818 3.49274   4
   0   8  -5 26.2538 3.46795   1
   0  -8   5 31.3636 2.72117   3
   0  -8   5 19.8642 3.00397   2
  -1   8  -5 20.0377 2.98969   4
  -1   8  -5 19.1550 2.72508   1
   1  -8   5 28.1453 2.78227   3
   1  -8   5 23.5509 3.23680   2
  -2   8  -5 13.6415 2.35072   1
  -2   8  -5 14.6884 3.09083   4
   2  -8   5 14.9016 2.41999   3
  -3   8  -5 10.7843 6.06885   4
  -3   8  -5 8.20697 2.46218   1
   3  -8   5 5.37346 1.77449   2
   3  -8   5 3.50498 2.33854   3
  -4   8  -5 -1.0330 2.08441   1
  -4   8  -5 2.79210 3.22047   4
   4  -8   5 -1.0802 1.75936   2
   4  -8   5 -0.4496 2.46833   3
  -5   8  -5 -2.4940 2.25189   1
  -5   8  -5 -0.6933 3.07582   4
   5  -8   5 -0.4716 1.87362   2
   5  -8   5 -0.9711 2.53143   3
  -6   8  -5 37.1686 4.33429   1
  -6   8  -5 23.4053 4.25253   4
   6  -8   5 36.0798 3.03691   2
   6  -8   5 20.0605 3.44049   3
  -7   8  -5 4.48122 3.74319   1
  -7   8  -5 4.48903 3.82712   4
   7  -8   5 0.81413 2.93148   3
   7  -8   5 4.12659 2.29848   2
  -8   8  -5 0.65955 4.27067   4
  -8   8  -5 3.70308 4.72327   1
   8  -8   5 -1.9332 2.74700   3
  -9   8  -5 -9.5726 5.32660   1
  -9   8  -5 3.53766 5.11547   4
   9  -8   5 -2.7980 3.44355   3
 -10   8  -5 -0.5737 5.83995   4
 -10   8  -5 -6.9574 6.93505   1
 -11   8  -5 10.9151 9.12125   1
 -11   8  -5 -1.8659 5.65788   4
  11  -8   5 -3.7373 4.26560   3
   7   7  -5 -0.2672 3.63813   4
  -7  -7   5 -4.0497 5.41968   2
   6   7  -5 6.89793 3.30798   4
   6   7  -5 1.86075 4.46744   1
  -6  -7   5 3.26998 4.16582   2
   5   7  -5 1.11412 2.66741   4
   5   7  -5 5.46242 4.02429   1
  -5  -7   5 1.91087 3.30914   2
   4   7  -5 5.45121 3.61549   1
   4   7  -5 3.32562 2.26677   4
  -4  -7   5 4.94172 3.04759   2
   3   7  -5 3.13859 3.52188   1
  -3  -7   5 10.8679 1.41386   3
  -3  -7   5 8.14748 3.23186   2
   2   7  -5 3.08822 2.08716   4
   2   7  -5 5.88337 2.92251   1
  -2  -7   5 0.22397 1.37842   3
  -2  -7   5 1.67673 2.20357   2
   1   7  -5 7.36832 2.44500   1
  -1  -7   5 7.49458 1.57234   3
  -1  -7   5 6.69725 2.53938   2
   0   7  -5 27.5187 2.42691   4
   0   7  -5 25.7968 2.97241   1
   0  -7   5 22.5667 2.86791   2
   0  -7   5 30.2531 2.39812   3
  -1   7  -5 32.5701 2.79941   1
  -1   7  -5 30.3718 2.77891   4
   1  -7   5 35.9804 2.64641   3
   1  -7   5 35.3838 2.83454   2
  -2   7  -5 30.6367 2.78754   4
  -2   7  -5 22.8049 2.44152   1
   2  -7   5 27.6134 2.55660   2
   2  -7   5 24.4530 2.47821   3
  -3   7  -5 4.57601 2.82203   4
  -3   7  -5 4.69688 1.82466   1
   3  -7   5 7.22109 1.74181   2
  -4   7  -5 1.32930 2.67743   4
  -4   7  -5 2.07777 1.90259   1
   4  -7   5 3.18890 1.53764   2
   4  -7   5 -1.9548 1.94245   3
  -5   7  -5 7.86634 2.77518   4
  -5   7  -5 11.3486 2.61890   1
   5  -7   5 12.6902 1.91396   2
   5  -7   5 9.62808 2.69192   3
  -6   7  -5 14.2858 3.94999   4
  -6   7  -5 22.2533 3.47575   1
   6  -7   5 16.6765 3.23645   3
   6  -7   5 22.4180 2.30916   2
  -7   7  -5 5.64512 3.76841   4
  -7   7  -5 6.14860 3.80534   1
   7  -7   5 7.37741 2.87385   3
   7  -7   5 5.76121 1.79118   2
  -8   7  -5 2.52970 4.64198   1
  -8   7  -5 -1.3091 4.04242   4
   8  -7   5 -4.9279 2.76850   3
  -9   7  -5 -3.8898 4.32592   4
  -9   7  -5 -8.4723 5.13872   1
   9  -7   5 -1.5415 3.08649   3
 -10   7  -5 -10.385 6.51926   1
 -10   7  -5 -0.7388 4.77432   4
  10  -7   5 -5.4476 3.77868   3
 -11   7  -5 -8.0565 5.28779   4
 -11   7  -5 9.64513 8.61403   1
  11  -7   5 -6.7999 4.45576   3
   8   6  -5 2.50589 4.19739   4
   8   6  -5 2.99809 5.03373   1
  -8  -6   5 4.85046 9.25416   2
   7   6  -5 2.45288 3.28809   4
   7   6  -5 1.52516 4.66047   1
  -7  -6   5 6.24076 4.69476   2
   6   6  -5 12.9699 4.26220   1
   6   6  -5 1.65011 2.74389   4
  -6  -6   5 -1.9098 3.62103   2
   5   6  -5 6.62222 2.53079   4
   5   6  -5 2.51793 3.74169   1
  -5  -6   5 3.44156 2.89128   2
   4   6  -5 5.21866 3.35949   1
   4   6  -5 6.96975 2.21506   4
  -4  -6   5 2.40165 2.67188   2
   3   6  -5 19.6601 3.67128   1
   3   6  -5 19.1705 2.33548   4
  -3  -6   5 17.0978 1.76716   3
  -3  -6   5 21.3188 3.61921   2
   2   6  -5 1.46629 1.42147   4
   2   6  -5 2.17277 2.29080   1
  -2  -6   5 1.98532 1.09134   3
  -2  -6   5 3.27319 2.24886   2
   1   6  -5 13.9400 2.01757   4
   1   6  -5 14.6273 2.41105   1
  -1  -6   5 15.7584 2.46291   2
  -1  -6   5 14.9126 1.62760   3
   0   6  -5 41.5968 3.01682   1
   0   6  -5 45.1779 2.81872   4
   0  -6   5 47.8210 2.52418   3
   0  -6   5 48.0653 2.88754   2
  -1   6  -5 92.6413 4.07215   1
  -1   6  -5 91.1360 4.13347   4
   1  -6   5 96.3333 3.85635   3
   1  -6   5 92.9749 4.03710   2
  -2   6  -5 56.7488 3.07216   1
  -2   6  -5 57.3295 3.46416   4
   2  -6   5 56.4611 3.00740   3
   2  -6   5 52.6353 2.76565   2
  -3   6  -5 24.7118 2.32715   1
  -3   6  -5 28.2817 2.77669   4
   3  -6   5 29.1784 2.32627   3
   3  -6   5 24.8733 2.08729   2
  -4   6  -5 1.27043 1.61737   1
   4  -6   5 -0.7822 1.19576   2
   4  -6   5 0.95213 1.61556   3
  -5   6  -5 7.10922 2.87010   4
  -5   6  -5 9.48027 2.58461   1
   5  -6   5 6.17098 1.49250   2
   5  -6   5 2.76072 2.25128   3
  -6   6  -5 17.0549 3.11769   1
  -6   6  -5 10.8386 3.24870   4
   6  -6   5 16.4294 1.82249   2
   6  -6   5 9.09708 2.55049   3
  -7   6  -5 9.18335 3.63555   1
  -7   6  -5 12.0645 4.02798   4
   7  -6   5 7.27164 2.60969   3
  -8   6  -5 -1.8027 3.65103   4
  -8   6  -5 0.71915 4.22568   1
   8  -6   5 2.61050 2.79735   3
  -9   6  -5 -1.6464 3.95977   4
  -9   6  -5 -0.9085 5.05316   1
   9  -6   5 -1.8238 2.96006   3
 -10   6  -5 -1.6196 4.89979   4
 -10   6  -5 -4.1059 6.72097   1
  10  -6   5 -3.7924 3.71962   3
 -11   6  -5 7.83885 8.89512   1
 -11   6  -5 2.63248 5.30005   4
  11  -6   5 -10.184 4.61479   3
   9   5  -5 -4.3975 4.02388   4
   9   5  -5 9.48458 6.17804   1
  -9  -5   5 5.29515 7.34310   2
   8   5  -5 8.85792 5.11464   1
   8   5  -5 -4.0457 3.34606   4
  -8  -5   5 0.55669 4.71559   2
   7   5  -5 6.34123 3.79433   1
  -7  -5   5 5.12180 4.39983   2
   6   5  -5 9.25345 2.83166   4
   6   5  -5 10.9222 4.14431   1
  -6  -5   5 10.2411 4.00323   2
   5   5  -5 4.10998 2.01506   4
   5   5  -5 5.63480 3.10117   1
  -5  -5   5 5.57171 3.08425   2
   4   5  -5 34.8968 4.18145   1
   4   5  -5 37.9520 3.15096   3
   4   5  -5 40.3253 2.67634   4
  -4  -5   5 38.0698 2.22022   3
  -4  -5   5 39.3201 3.95528   2
   3   5  -5 28.7984 3.83538   1
   3   5  -5 28.7608 2.12731   4
  -3  -5   5 22.9085 1.80006   3
  -3  -5   5 30.7145 3.34433   2
   2   5  -5 24.5840 2.01822   4
   2   5  -5 21.7478 2.70603   1
  -2  -5   5 23.9018 2.38855   2
  -2  -5   5 21.3869 1.70423   3
   1   5  -5 4.00704 1.52807   1
   1   5  -5 6.67613 1.56298   4
  -1  -5   5 7.14823 1.25143   3
  -1  -5   5 3.34296 1.21440   2
   0   5  -5 155.922 5.72493   1
   0   5  -5 164.859 5.56351   4
   0  -5   5 158.876 5.65220   2
   0  -5   5 163.648 5.21252   3
  -1   5  -5 75.3298 3.39069   1
  -1   5  -5 77.1644 3.45449   4
   1  -5   5 71.1980 3.25166   2
   1  -5   5 75.9877 3.22701   3
  -2   5  -5 120.870 4.86901   4
  -2   5  -5 116.122 4.45015   1
   2  -5   5 123.709 4.33890   2
   2  -5   5 125.683 4.65004   3
  -3   5  -5 41.7031 2.88187   4
  -3   5  -5 38.4675 2.63451   1
   3  -5   5 37.4538 2.55266   3
   3  -5   5 42.9420 2.15444   2
  -4   5  -5 1.37310 1.50202   1
  -4   5  -5 3.39888 1.89221   4
   4  -5   5 3.46349 1.18871   2
   4  -5   5 3.95402 1.58664   3
  -5   5  -5 2.99046 2.46468   4
  -5   5  -5 5.91003 2.23725   1
   5  -5   5 2.38475 1.08353   2
   5  -5   5 2.91240 1.98687   3
  -6   5  -5 11.8190 3.34962   4
  -6   5  -5 21.1480 3.29532   1
   6  -5   5 12.1334 2.66311   3
  -7   5  -5 22.8318 4.32942   1
  -7   5  -5 17.9207 4.00626   4
   7  -5   5 14.6023 3.03304   3
  -8   5  -5 -0.7812 3.60816   4
  -8   5  -5 10.7283 4.46102   1
   8  -5   5 0.93782 2.47414   3
  -9   5  -5 1.15011 5.07965   1
  -9   5  -5 -1.4642 3.79583   4
   9  -5   5 2.17835 3.15543   3
 -10   5  -5 2.52377 4.34629   4
 -10   5  -5 2.95980 6.28733   1
  10  -5   5 -7.5300 3.97771   3
 -11   5  -5 -1.9780 7.70739   1
 -11   5  -5 5.30701 5.89737   4
  11  -5   5 0.69715 4.59158   3
  10   4  -5 4.57244 4.38460   4
 -10  -4   5 4.09378 6.60193   2
   9   4  -5 12.8578 7.73224   1
   9   4  -5 1.74912 3.69981   4
  -9  -4   5 10.1397 5.85524   2
   8   4  -5 0.82660 2.95885   4
   8   4  -5 3.53679 4.57664   1
  -8  -4   5 3.75540 4.14161   2
   7   4  -5 1.46288 3.66917   1
   7   4  -5 -0.3683 2.41693   4
  -7  -4   5 -3.1326 3.32755   2
   6   4  -5 21.3636 4.16341   1
   6   4  -5 21.1941 2.75092   4
  -6  -4   5 23.5715 3.98496   2
   5   4  -5 5.45036 3.02746   1
   5   4  -5 0.75650 1.45375   4
  -5  -4   5 3.25339 1.53555   3
  -5  -4   5 -0.7395 2.19043   2
   4   4  -5 129.598 4.53135   4
   4   4  -5 128.571 6.32709   1
  -4  -4   5 133.307 5.93939   2
  -4  -4   5 121.715 4.23447   3
   3   4  -5 161.278 6.36346   1
   3   4  -5 153.671 5.02958   4
  -3  -4   5 156.020 6.11937   2
  -3  -4   5 154.115 4.86122   3
   2   4  -5 112.048 3.89933   4
   2   4  -5 108.688 4.80930   1
  -2  -4   5 109.256 3.72009   3
  -2  -4   5 110.773 4.62360   2
   1   4  -5 5.70582 1.45305   1
   1   4  -5 -0.4166 1.01961   4
  -1  -4   5 0.97373 1.21114   2
  -1  -4   5 2.11137 0.92309   3
   0   4  -5 198.364 6.38323   4
   0   4  -5 206.379 6.68728   1
   0  -4   5 210.623 6.21048   3
   0  -4   5 199.613 6.48818   2
  -1   4  -5 23.8219 1.88385   4
  -1   4  -5 21.8774 1.93783   1
   1  -4   5 22.0544 1.61059   2
   1  -4   5 20.4457 1.75899   3
  -2   4  -5 299.052 8.80430   1
  -2   4  -5 289.015 9.07211   4
   2  -4   5 301.685 8.83795   3
   2  -4   5 293.470 8.34640   2
  -3   4  -5 70.3628 3.27287   1
  -3   4  -5 69.1637 2.60060   2
  -3   4  -5 71.7537 3.60019   4
   3  -4   5 71.2111 3.31660   3
   3  -4   5 70.3890 2.62396   2
  -4   4  -5 14.7914 2.33839   4
  -4   4  -5 17.3624 2.39454   1
  -4   4  -5 15.5259 1.41471   2
   4  -4   5 14.1919 1.98246   3
  -5   4  -5 4.76861 2.19659   1
   5  -4   5 3.08253 2.07401   3
  -6   4  -5 13.6422 4.13995   4
   6  -4   5 19.8741 3.11302   3
  -7   4  -5 18.7951 4.22476   4
   7  -4   5 23.0207 3.24185   3
  -8   4  -5 -2.0903 3.25978   4
  -8   4  -5 0.29947 3.74234   1
   8  -4   5 -0.0594 2.63086   3
  -9   4  -5 -0.0345 3.76586   4
  -9   4  -5 5.77612 4.89346   1
   9  -4   5 -2.8568 3.17441   3
 -10   4  -5 -3.5588 3.85549   4
 -10   4  -5 5.41110 6.17044   1
  10  -4   5 2.19739 3.75977   3
 -11   4  -5 -0.0367 7.53637   1
 -11   4  -5 -3.0615 4.85265   4
  11  -4   5 -2.3054 4.88323   3
  11  -4   5 -0.2778 5.22876   4
  10   3  -5 5.36905 4.10737   4
  10   3  -5 8.82073 5.99340   1
 -10  -3   5 9.97933 6.39886   2
   9   3  -5 7.92634 4.76895   1
   9   3  -5 6.94709 3.70408   4
  -9  -3   5 2.26535 5.00054   2
   8   3  -5 7.62807 2.90949   4
   8   3  -5 6.36969 4.11235   1
  -8  -3   5 7.45794 3.97335   2
   7   3  -5 -0.8227 2.99907   1
   7   3  -5 1.09100 2.16392   4
  -7  -3   5 7.28516 3.64581   2
  -7  -3   5 0.86242 2.08655   3
   6   3  -5 5.16181 2.90129   1
   6   3  -5 3.57813 1.69437   4
  -6  -3   5 5.01194 1.91571   3
  -6  -3   5 3.73777 2.78464   2
   5   3  -5 47.1324 4.20779   1
   5   3  -5 39.5571 2.36440   4
  -5  -3   5 39.6651 2.62447   3
  -5  -3   5 39.3564 3.94465   2
   4   3  -5 246.488 7.06422   4
   4   3  -5 241.773 8.68061   1
  -4  -3   5 235.393 8.30189   2
  -4  -3   5 226.899 7.00003   3
   3   3  -5 307.145 8.41030   4
   3   3  -5 296.028 9.86175   1
  -3  -3   5 301.343 9.62720   2
  -3  -3   5 302.356 8.48510   3
   2   3  -5 21.1622 2.08418   1
   2   3  -5 21.1077 1.40564   4
  -2  -3   5 16.8551 1.39994   3
  -2  -3   5 20.3942 1.97465   2
   1   3  -5 23.1890 1.56742   4
   1   3  -5 22.2342 1.92400   1
  -1  -3   5 25.4281 1.99260   2
  -1  -3   5 24.4610 1.43617   3
   0   3  -5 68.2996 2.99747   1
   0   3  -5 66.6521 2.74999   4
   0  -3   5 65.2323 2.58639   3
   0  -3   5 66.5832 2.84321   2
  -1   3  -5 187.240 5.97530   1
  -1   3  -5 183.344 5.93405   4
   1  -3   5 184.950 5.74970   3
   1  -3   5 185.539 5.62339   2
  -2   3  -5 413.238 11.8604   4
  -2   3  -5 392.981 10.6808   2
  -2   3  -5 426.737 11.6931   1
   2  -3   5 407.258 11.5277   3
   2  -3   5 409.869 10.9055   2
  -3   3  -5 103.200 3.06608   2
  -3   3  -5 113.419 4.41951   1
  -3   3  -5 104.336 4.48110   4
   3  -3   5 106.746 3.19227   2
   3  -3   5 111.276 4.14779   3
  -4   3  -5 5.11567 1.98871   1
  -4   3  -5 3.31182 1.73252   4
   4  -3   5 4.52778 1.48005   3
  -5   3  -5 2.15913 2.81460   4
  -5   3  -5 2.64882 2.11221   1
   5  -3   5 2.59175 1.43705   3
  -6   3  -5 20.5387 4.29957   4
  -6   3  -5 23.2293 3.73599   1
   6  -3   5 21.2522 2.80113   3
  -7   3  -5 14.6282 3.77512   4
  -7   3  -5 17.4829 3.74259   1
   7  -3   5 15.9959 2.94331   3
  -8   3  -5 -3.5458 3.47108   4
  -8   3  -5 -0.3589 3.97574   1
   8  -3   5 2.85104 2.87231   3
  -9   3  -5 7.23761 4.16958   4
  -9   3  -5 -1.5432 4.91634   1
   9  -3   5 -2.7303 2.96616   3
 -10   3  -5 1.63262 6.13165   1
  10  -3   5 0.48247 4.60936   4
  10  -3   5 1.87881 3.99765   3
 -11   3  -5 -0.5980 7.31695   1
  11  -3   5 1.64774 4.79040   3
  11  -3   5 3.98650 6.00168   4
  11   2  -5 -2.7335 4.64856   4
  11   2  -5 1.12562 6.34027   1
 -11  -2   5 4.63495 10.9679   2
  10   2  -5 11.3747 5.53805   1
  10   2  -5 6.74341 3.99286   4
 -10  -2   5 3.06190 5.75515   2
   9   2  -5 4.54739 3.41848   4
   9   2  -5 9.05207 4.72792   1
  -9  -2   5 15.9429 5.22649   2
   8   2  -5 12.4567 3.26825   4
   8   2  -5 12.3108 4.02411   1
  -8  -2   5 9.31212 3.80437   2
  -8  -2   5 7.86142 2.77813   3
   7   2  -5 5.14785 3.41321   1
   7   2  -5 8.38848 2.10740   4
  -7  -2   5 6.84820 2.46267   3
  -7  -2   5 7.11965 3.14731   2
   6   2  -5 0.93779 1.43781   4
   6   2  -5 -0.3171 4.30684   1
  -6  -2   5 2.99700 2.77645   2
  -6  -2   5 -1.0129 1.86650   3
   5   2  -5 68.8898 2.92261   4
  -5  -2   5 69.9042 3.30277   3
  -5  -2   5 59.5918 4.34965   2
   4   2  -5 160.638 6.22937   1
   4   2  -5 156.563 4.71540   4
  -4  -2   5 151.880 5.95261   2
  -4  -2   5 150.438 5.07301   3
   3   2  -5 149.781 5.67477   1
   3   2  -5 146.629 4.33033   4
  -3  -2   5 147.751 5.58554   2
  -3  -2   5 147.671 4.73957   3
   2   2  -5 61.6967 2.12552   4
   2   2  -5 56.8859 2.93683   1
  -2  -2   5 59.2919 2.98228   2
  -2  -2   5 57.7364 2.43414   3
  -2  -2   5 59.3362 2.12084   4
   1   2  -5 1.49618 0.74017   4
   1   2  -5 3.58998 0.93993   1
  -1  -2   5 2.52565 0.77190   3
  -1  -2   5 3.06953 1.20060   2
  -1  -2   5 3.65701 0.72132   4
   0   2  -5 44.9652 2.22027   1
   0   2  -5 45.5701 2.08271   4
   0  -2   5 40.9113 1.95069   4
   0  -2   5 45.7256 1.99728   3
   0  -2   5 45.9880 2.24843   2
  -1   2  -5 222.688 6.64653   4
  -1   2  -5 207.894 6.02151   2
  -1   2  -5 224.354 6.69660   1
   1  -2   5 215.668 6.22417   2
   1  -2   5 210.484 6.40695   3
  -2   2  -5 258.176 6.93630   2
  -2   2  -5 270.779 8.21808   4
  -2   2  -5 270.673 8.12294   1
   2  -2   5 270.348 7.87674   3
   2  -2   5 264.445 7.12517   2
  -3   2  -5 91.6071 4.05651   4
  -3   2  -5 91.0508 3.96174   1
   3  -2   5 92.7028 3.64861   3
  -4   2  -5 7.74146 1.80239   1
  -4   2  -5 5.34612 1.97463   4
   4  -2   5 6.27381 1.33483   3
  -5   2  -5 3.23028 2.28525   1
   5  -2   5 0.33495 1.19464   3
  -6   2  -5 12.6148 3.21833   1
  -6   2  -5 13.2801 3.27140   4
   6  -2   5 18.0945 2.64244   3
  -7   2  -5 9.35063 3.37107   1
  -7   2  -5 6.68467 3.03157   4
  -8   2  -5 1.97633 3.41436   4
  -8   2  -5 5.15188 4.18791   1
   8  -2   5 4.71516 3.75063   4
   8  -2   5 6.49865 3.07661   3
  -9   2  -5 -0.7992 4.77772   1
   9  -2   5 -2.2325 3.81149   4
   9  -2   5 6.06374 3.08376   3
 -10   2  -5 9.62314 6.76301   1
  10  -2   5 -9.1451 3.87912   3
  11   1  -5 6.28842 5.72170   1
  11   1  -5 7.71124 4.91445   4
 -11  -1   5 -11.934 6.54911   2
  10   1  -5 14.4969 5.63985   1
  10   1  -5 4.73592 3.70922   4
 -10  -1   5 2.58595 4.71851   2
   9   1  -5 13.7027 3.65499   4
   9   1  -5 9.40609 4.58083   1
  -9  -1   5 14.9085 3.48857   3
  -9  -1   5 15.1910 4.70719   2
   8   1  -5 24.4414 4.37351   1
   8   1  -5 21.9987 3.71252   4
  -8  -1   5 24.6403 4.72046   2
  -8  -1   5 28.8014 3.53501   3
   7   1  -5 17.8485 3.64825   1
   7   1  -5 23.2014 2.67784   4
  -7  -1   5 22.3279 3.91702   2
  -7  -1   5 19.3758 2.84341   3
   6   1  -5 13.2835 1.79358   4
   6   1  -5 18.5145 3.22719   1
  -6  -1   5 16.2769 2.56847   3
  -6  -1   5 13.7434 3.07560   2
   5   1  -5 61.8801 3.76746   1
   5   1  -5 61.0929 2.60212   4
  -5  -1   5 61.7425 3.73209   2
  -5  -1   5 57.5115 3.09985   3
   4   1  -5 226.110 7.85916   1
   4   1  -5 228.477 6.37161   4
  -4  -1   5 236.566 7.93330   2
  -4  -1   5 225.399 7.04496   3
   3   1  -5 693.307 17.5522   4
   3   1  -5 701.884 19.2084   1
  -3  -1   5 702.475 18.3432   3
  -3  -1   5 701.749 17.8177   4
  -3  -1   5 669.756 19.0357   2
   2   1  -5 359.788 10.3591   1
   2   1  -5 354.555 9.02399   4
  -2  -1   5 341.660 10.2698   2
  -2  -1   5 346.852 9.70224   3
  -2  -1   5 349.738 8.98567   4
   1   1  -5 0.28756 0.74817   1
   1   1  -5 -0.5040 0.59457   4
  -1  -1   5 -1.1934 0.99935   2
  -1  -1   5 0.22014 0.61792   3
  -1  -1   5 0.01358 0.48856   4
   0   1  -5 106.690 3.87909   1
   0   1  -5 111.308 3.54348   4
   0  -1   5 108.266 3.58518   3
   0  -1   5 113.079 3.75235   2
   0  -1   5 102.788 3.46067   4
  -1   1  -5 107.764 3.86911   4
  -1   1  -5 108.111 3.42227   2
  -1   1  -5 110.180 4.01806   1
   1  -1   5 104.241 3.65500   3
   1  -1   5 115.271 3.49812   2
  -2   1  -5 284.664 8.61251   4
  -2   1  -5 285.850 7.36191   2
  -2   1  -5 295.284 8.77375   1
  -2   1  -5 272.931 7.34670   2
   2  -1   5 286.088 8.21952   3
  -3   1  -5 201.827 6.96057   4
  -3   1  -5 207.150 7.13068   1
   3  -1   5 206.276 6.40465   3
  -4   1  -5 26.2252 2.60337   4
  -4   1  -5 26.5347 2.70319   1
   4  -1   5 29.8363 2.13089   3
  -5   1  -5 4.75823 2.39297   4
  -5   1  -5 7.76440 2.65978   1
   5  -1   5 9.54603 1.69026   3
  -6   1  -5 10.0193 3.23747   1
  -6   1  -5 6.39371 3.16619   4
   6  -1   5 7.54735 2.17626   3
   6  -1   5 9.95300 3.36685   4
  -7   1  -5 5.57299 3.77437   1
   7  -1   5 2.52625 2.44074   3
   7  -1   5 8.23678 3.51163   4
  -8   1  -5 6.32306 4.54840   1
   8  -1   5 3.34985 2.76029   3
   8  -1   5 -0.4284 3.75592   4
  -9   1  -5 0.68024 5.41653   1
   9  -1   5 1.31294 3.19384   3
   9  -1   5 6.99761 4.50409   4
 -10   1  -5 -1.9220 8.96981   1
  10  -1   5 -0.7709 3.97992   3
  10  -1   5 5.22080 5.28169   4
  11   0  -5 4.24497 4.38795   4
  11   0  -5 6.38515 5.63682   1
 -11   0   5 -5.9416 5.75444   2
  10   0  -5 15.6927 5.42794   1
  10   0  -5 7.28778 3.98148   4
 -10   0   5 15.8488 4.33534   3
 -10   0   5 8.14370 5.24147   2
   9   0  -5 17.8654 4.43106   1
   9   0  -5 14.7553 3.23140   4
  -9   0   5 12.9473 3.53034   3
  -9   0   5 14.1565 4.38433   2
   8   0  -5 36.6065 4.80472   1
   8   0  -5 40.2784 3.34280   4
  -8   0   5 37.6688 4.63524   2
  -8   0   5 38.3528 4.18541   3
   7   0  -5 20.0718 2.44981   4
   7   0  -5 17.3876 3.61990   1
  -7   0   5 17.7206 2.83884   3
  -7   0   5 13.1277 4.93797   2
   6   0  -5 1.20038 1.85692   1
   6   0  -5 3.30444 1.41136   4
  -6   0   5 3.08688 1.89100   3
  -6   0   5 0.50863 2.28048   2
   5   0  -5 180.160 6.63682   1
   5   0  -5 172.669 5.33477   4
  -5   0   5 176.362 6.15168   3
  -5   0   5 175.378 6.66126   2
   4   0  -5 301.547 9.22512   1
   4   0  -5 289.399 7.69806   4
   4   0  -5 270.909 7.88360   4
  -4   0   5 287.963 8.62098   3
  -4   0   5 288.016 9.23527   2
   3   0  -5 1383.93 34.9351   4
   3   0  -5 1437.73 36.6161   1
   3   0  -5 1418.56 35.0765   4
  -3   0   5 1407.74 36.0935   3
  -3   0   5 1394.83 36.6380   2
   2   0  -5 207.006 6.60323   1
  -2   0   5 218.655 6.47706   3
  -2   0   5 224.372 6.90965   2
   1   0  -5 46.1385 2.11141   1
  -1   0   5 41.5514 1.49817   4
  -1   0   5 40.3629 1.96638   3
  -1   0   5 41.1963 1.54108   4
  -1   0   5 44.5658 2.21631   2
   0   0  -5 65.8552 2.43109   4
   0   0  -5 63.0470 2.71268   2
   0   0  -5 65.0083 2.73353   1
   0   0   5 68.1824 2.60955   2
   0   0   5 66.4345 2.54560   3
   0   0   5 62.8373 2.51019   4
  -1   0  -5 458.710 12.2455   2
  -1   0  -5 472.577 12.6699   4
  -1   0  -5 485.405 13.0357   1
  -1   0  -5 462.199 12.2137   2
   1   0   5 443.840 12.4513   3
  -2   0  -5 99.0106 3.58021   2
  -2   0  -5 124.085 4.61128   1
  -2   0  -5 120.214 3.54943   2
  -2   0  -5 124.196 4.41232   4
   2   0   5 118.303 3.97934   3
  -3   0  -5 389.616 11.7044   4
  -3   0  -5 420.816 12.1576   1
  -3   0  -5 387.100 10.1556   2
   3   0   5 384.926 11.0191   3
   3   0   5 401.068 11.8350   4
  -4   0  -5 10.2990 2.31853   1
  -4   0  -5 9.50780 1.14476   2
   4   0   5 9.45011 2.08346   4
   4   0   5 11.2126 1.56033   3
   4   0   5 12.2921 1.29515   2
  -5   0  -5 1.86851 2.37678   1
  -5   0  -5 5.27272 1.32084   2
   5   0   5 5.17409 1.50016   3
   5   0   5 2.71890 2.61952   4
   5   0   5 4.59730 1.21217   2
  -6   0  -5 2.41688 3.30200   1
  -6   0  -5 1.21427 1.70284   2
   6   0   5 1.54865 1.65473   3
   6   0   5 -1.2038 2.87237   4
  -7   0  -5 2.32906 3.52769   1
   7   0   5 7.65394 3.65549   4
   7   0   5 4.01713 2.24044   3
  -8   0  -5 -2.8149 4.25407   1
   8   0   5 -0.8028 2.94062   3
   8   0   5 -1.4626 3.40550   4
  -9   0  -5 12.2734 6.11496   1
   9   0   5 -2.7778 3.31545   3
   9   0   5 -1.3845 4.21670   4
 -10   0  -5 -6.3001 5.80441   1
  10   0   5 -3.3659 4.56334   4
  12  -1  -5 3.43976 5.00554   4
  12  -1  -5 1.89669 7.24886   1
 -12   1   5 -0.8659 7.14599   2
  11  -1  -5 1.55263 3.97117   4
  11  -1  -5 3.68252 7.95547   3
  11  -1  -5 8.69059 5.40590   1
 -11   1   5 1.36844 5.62084   2
  10  -1  -5 17.3138 4.90018   1
  10  -1  -5 11.1768 3.76982   4
 -10   1   5 10.8019 4.08704   3
 -10   1   5 6.54819 4.61614   2
   9  -1  -5 26.4385 3.87602   4
   9  -1  -5 22.2866 4.83772   1
  -9   1   5 24.8387 4.71001   3
  -9   1   5 20.3620 4.45906   2
   8  -1  -5 69.2924 4.01020   4
   8  -1  -5 62.7813 5.05413   1
  -8   1   5 62.7746 4.53256   3
  -8   1   5 62.7840 5.18301   2
   7  -1  -5 54.5022 3.20498   4
  -7   1   5 54.4649 3.95338   3
  -7   1   5 49.0797 4.20312   2
   6  -1  -5 -0.2766 1.34762   4
   6  -1  -5 -0.5139 1.60371   1
  -6   1   5 0.53845 1.57639   2
  -6   1   5 -0.9025 1.73022   3
   5  -1  -5 183.061 6.59306   1
   5  -1  -5 186.796 5.56456   4
  -5   1   5 179.089 6.73656   2
  -5   1   5 176.422 6.36328   3
   4  -1  -5 358.636 9.45349   4
   4  -1  -5 358.213 9.71447   4
   4  -1  -5 363.965 10.6928   1
  -4   1   5 358.242 10.5114   3
  -4   1   5 351.308 10.8894   2
   3  -1  -5 1274.35 33.0661   1
  -3   1   5 1272.44 33.0429   3
  -3   1   5 1288.69 33.4586   2
   2  -1  -5 463.268 12.5054   1
  -2   1   5 472.407 12.9207   2
  -2   1   5 436.433 12.5047   3
   1  -1  -5 42.2105 2.03497   1
   1  -1  -5 43.8210 2.26694   2
  -1   1   5 39.5534 1.96910   3
  -1   1   5 41.6361 1.62929   4
  -1   1   5 41.1409 1.73008   4
  -1   1   5 42.4978 2.18493   2
   0  -1  -5 67.9487 2.84129   1
   0  -1  -5 65.2859 2.72815   2
   0   1   5 65.3331 2.64591   3
   0   1   5 69.0865 2.51781   4
  -1  -1  -5 333.562 9.92144   2
  -1  -1  -5 373.526 10.7231   1
  -1  -1  -5 378.939 9.90442   2
   1   1   5 373.042 10.3746   4
   1   1   5 368.439 10.1160   3
  -2  -1  -5 50.6450 2.95029   1
  -2  -1  -5 50.9499 1.97294   2
   2   1   5 53.8089 2.31614   3
   2   1   5 46.6327 2.35744   2
   2   1   5 52.8794 2.80049   4
  -3  -1  -5 362.920 9.50409   2
  -3  -1  -5 350.171 11.2200   1
   3   1   5 329.493 9.72543   2
   3   1   5 368.330 10.0458   3
   3   1   5 364.792 10.9034   4
  -4  -1  -5 0.59901 1.14571   2
  -4  -1  -5 -0.1166 2.15619   1
   4   1   5 0.54464 1.72988   4
   4   1   5 -0.1524 1.20546   3
  -5  -1  -5 0.86821 1.58585   2
  -5  -1  -5 3.98193 2.73424   1
   5   1   5 -0.5299 2.24219   4
   5   1   5 1.02636 1.34548   3
  -6  -1  -5 0.28546 3.18360   1
  -6  -1  -5 0.51711 2.28096   2
   6   1   5 3.04028 2.89815   4
   6   1   5 2.66613 1.89389   3
  -7  -1  -5 2.97865 4.21403   1
   7   1   5 2.91254 3.53689   4
  -8  -1  -5 1.06229 4.63460   1
   8   1   5 -1.9577 2.97717   3
   8   1   5 -2.9056 3.61518   4
  12  -2  -5 -1.8964 4.76269   4
  12  -2  -5 -1.7907 5.61911   1
 -12   2   5 2.41699 6.63497   2
  11  -2  -5 1.34132 4.29113   4
  11  -2  -5 4.20506 4.64131   1
 -11   2   5 5.69523 5.22794   2
 -11   2   5 -6.6431 5.36969   3
  10  -2  -5 4.65153 4.26297   1
  10  -2  -5 2.69175 3.47876   4
 -10   2   5 8.19232 4.57983   3
 -10   2   5 2.88993 4.26715   2
   9  -2  -5 35.8088 4.52211   1
   9  -2  -5 35.5994 4.57383   4
  -9   2   5 32.7030 4.63375   3
  -9   2   5 33.7524 4.80593   2
   8  -2  -5 87.0279 4.56940   4
   8  -2  -5 87.0514 5.34698   1
  -8   2   5 77.4194 6.44645   2
  -8   2   5 92.0169 5.47624   3
   7  -2  -5 66.7297 4.08038   1
  -7   2   5 67.1578 4.27109   3
  -7   2   5 63.7780 4.54344   2
  -7   2   5 62.2351 3.48502   4
   6  -2  -5 1.20463 1.45305   1
  -6   2   5 1.44582 1.53442   4
  -6   2   5 -0.4606 1.66245   2
  -6   2   5 0.95641 1.60003   3
   5  -2  -5 50.1476 2.81043   1
  -5   2   5 51.7983 3.14267   3
  -5   2   5 53.3545 3.30595   2
  -5   2   5 54.8139 2.47941   4
   4  -2  -5 366.836 10.4303   1
   4  -2  -5 347.639 9.34102   4
  -4   2   5 359.189 10.9120   2
  -4   2   5 356.206 10.6597   3
  -4   2   5 354.717 9.53477   4
   3  -2  -5 590.893 14.9222   4
   3  -2  -5 604.011 15.8743   1
  -3   2   5 592.107 16.4385   2
  -3   2   5 581.855 15.0854   4
  -3   2   5 590.106 16.2610   3
   2  -2  -5 427.061 11.9784   2
   2  -2  -5 400.517 10.6915   4
   2  -2  -5 411.195 11.3420   1
  -2   2   5 415.685 11.6742   3
  -2   2   5 418.189 10.6482   4
   1  -2  -5 145.716 4.91427   2
   1  -2  -5 140.749 4.65012   1
   1  -2  -5 130.485 4.30171   4
  -1   2   5 146.821 4.76246   3
  -1   2   5 146.184 4.15484   4
   0  -2  -5 5.30929 1.31069   1
   0  -2  -5 5.49781 1.13398   2
   0   2   5 4.36739 1.10220   3
   0   2   5 5.61861 1.08306   4
  -1  -2  -5 33.8776 1.84427   2
  -1  -2  -5 38.3578 2.43365   1
   1   2   5 34.1402 1.99438   3
   1   2   5 37.2642 2.12969   4
  -2  -2  -5 153.296 5.88136   1
  -2  -2  -5 153.286 4.74757   2
   2   2   5 156.164 5.00741   3
   2   2   5 148.576 5.45441   4
  -3  -2  -5 116.328 3.97405   2
  -3  -2  -5 112.493 5.16925   1
   3   2   5 117.496 4.82674   4
   3   2   5 123.758 4.26153   3
  -4  -2  -5 -1.3847 1.35182   2
  -4  -2  -5 2.26788 2.43445   1
   4   2   5 1.46839 1.25453   3
   4   2   5 0.54401 2.21665   4
  -5  -2  -5 1.18125 3.02017   1
  -5  -2  -5 8.58990 1.99099   2
   5   2   5 0.20705 2.21858   4
   5   2   5 1.53859 1.63679   3
  -6  -2  -5 3.61224 3.40287   1
  -6  -2  -5 5.80067 2.64824   2
   6   2   5 2.07485 2.93693   4
   6   2   5 0.56749 2.03554   3
  -7  -2  -5 4.70251 4.56765   1
   7   2   5 1.28773 2.67479   3
   7   2   5 2.32465 3.14684   4
  -8  -2  -5 2.14455 5.53933   1
   8   2   5 -2.5488 3.92771   4
  -9  -2  -5 -4.1128 6.36577   1
   9   2   5 -3.5529 4.27864   4
  12  -3  -5 6.90980 5.39266   1
  12  -3  -5 -6.3146 4.64829   4
  12  -3  -5 8.25441 6.75558   3
 -12   3   5 3.96368 5.98447   2
  11  -3  -5 -0.7645 4.51035   4
  11  -3  -5 6.75380 4.80583   1
 -11   3   5 7.22057 5.84532   3
 -11   3   5 18.9455 5.25850   2
  10  -3  -5 8.70710 3.87400   1
  10  -3  -5 25.6793 7.96760   4
 -10   3   5 6.67822 4.56932   2
 -10   3   5 5.63427 4.25020   3
  -9   3   5 43.0116 5.22439   2
  -9   3   5 40.0704 4.07125   4
   8  -3  -5 93.7906 4.96938   1
  -8   3   5 87.8555 4.65021   4
  -8   3   5 103.352 9.04585   2
  -8   3   5 83.3328 5.67742   3
   7  -3  -5 67.8039 3.87683   1
  -7   3   5 62.4480 4.20508   3
  -7   3   5 59.1169 4.58989   2
  -7   3   5 66.6089 3.60786   4
   6  -3  -5 44.7233 2.97451   1
  -6   3   5 50.5039 3.38988   2
  -6   3   5 48.1203 3.55261   3
  -6   3   5 50.5712 2.86527   4
   5  -3  -5 5.46803 1.34389   1
  -5   3   5 6.17611 1.61013   3
  -5   3   5 7.72415 1.94137   2
  -5   3   5 5.00548 1.47899   4
   4  -3  -5 152.374 4.97023   1
   4  -3  -5 159.321 5.88899   2
   4  -3  -5 143.812 4.43781   4
  -4   3   5 151.694 5.66900   3
  -4   3   5 156.207 4.74060   4
   3  -3  -5 465.964 12.7012   4
   3  -3  -5 495.098 13.2482   1
   3  -3  -5 505.120 14.1930   2
  -3   3   5 498.513 14.0026   3
  -3   3   5 499.399 12.9012   4
   2  -3  -5 662.307 17.3011   1
   2  -3  -5 640.365 17.8988   2
  -2   3   5 659.557 16.8493   4
  -2   3   5 657.303 17.8422   3
   1  -3  -5 259.952 7.74273   1
   1  -3  -5 255.092 7.88277   2
  -1   3   5 260.127 7.25039   4
  -1   3   5 260.151 7.84116   3
   0  -3  -5 11.7192 1.50696   2
   0  -3  -5 9.80698 1.79377   1
   0   3   5 10.7618 1.41942   3
   0   3   5 9.64595 1.36014   4
  -1  -3  -5 53.9805 3.13223   1
  -1  -3  -5 53.5481 2.50586   2
   1   3   5 52.2968 2.61760   3
   1   3   5 53.3083 2.56677   4
  -2  -3  -5 112.497 3.94549   2
  -2  -3  -5 106.271 4.91711   1
   2   3   5 109.070 4.47810   4
   2   3   5 112.963 4.10412   3
  -3  -3  -5 38.0028 4.06969   1
  -3  -3  -5 33.9464 2.28810   2
   3   3   5 35.0728 3.37854   4
   3   3   5 37.9121 2.44584   3
  -4  -3  -5 4.15303 3.03959   1
  -4  -3  -5 7.58110 1.98620   2
   4   3   5 7.02634 2.40272   4
   4   3   5 7.40239 1.83782   3
  -5  -3  -5 -4.5143 3.29971   1
  -5  -3  -5 -0.9074 2.25489   2
   5   3   5 1.14853 1.93409   3
   5   3   5 1.88773 2.44381   4
  -6  -3  -5 -2.4887 3.09067   2
  -6  -3  -5 0.02490 4.34847   1
   6   3   5 1.60064 2.93796   4
   6   3   5 1.09919 2.44747   3
  -7  -3  -5 5.76384 5.45937   1
   7   3   5 0.85420 3.07092   4
  12  -4  -5 -3.3727 5.75757   2
  12  -4  -5 13.2451 5.06420   1
  12  -4  -5 -5.5067 5.47839   4
 -12   4   5 3.39410 5.51427   2
 -12   4   5 -0.6473 6.44098   3
  11  -4  -5 7.49572 4.36428   1
 -11   4   5 27.4843 5.56044   2
 -11   4   5 8.72248 4.97312   4
 -11   4   5 -2.4899 6.10140   3
  10  -4  -5 20.2060 4.36012   1
 -10   4   5 28.4476 8.78194   4
 -10   4   5 11.2136 4.23700   2
 -10   4   5 14.2600 4.81280   3
   9  -4  -5 54.1733 4.97665   1
  -9   4   5 56.2821 4.63606   4
  -9   4   5 59.7258 5.21720   2
  -9   4   5 55.7203 5.54936   3
   8  -4  -5 22.9124 3.07691   1
  -8   4   5 21.1879 3.73652   3
  -8   4   5 26.1046 3.22220   4
   7  -4  -5 185.531 7.84037   2
   7  -4  -5 174.452 6.51561   1
  -7   4   5 182.612 7.66574   3
  -7   4   5 178.392 6.57964   4
   6  -4  -5 55.5933 3.03329   1
   6  -4  -5 53.3991 3.46820   2
  -6   4   5 50.3668 3.14272   4
  -6   4   5 59.2557 3.71026   3
   5  -4  -5 28.5939 1.90420   1
   5  -4  -5 27.3982 2.71705   2
  -5   4   5 26.0710 2.43066   3
  -5   4   5 26.9103 2.21523   4
   4  -4  -5 216.064 6.50305   1
   4  -4  -5 231.489 7.77963   2
  -4   4   5 219.620 6.58265   4
  -4   4   5 218.097 7.58512   3
   3  -4  -5 337.510 10.1348   2
   3  -4  -5 323.156 9.05079   1
  -3   4   5 320.537 9.99229   3
  -3   4   5 319.648 8.97203   4
   2  -4  -5 248.334 7.86826   2
   2  -4  -5 246.358 7.28517   1
  -2   4   5 247.530 7.00586   4
  -2   4   5 236.123 7.75833   3
   1  -4  -5 89.1241 3.75575   1
   1  -4  -5 88.1205 3.70192   2
  -1   4   5 89.1358 3.76600   3
  -1   4   5 86.4120 3.27266   4
   0  -4  -5 11.7397 1.67576   2
   0  -4  -5 12.5077 2.09641   1
   0   4   5 10.7053 1.44977   4
   0   4   5 8.98068 1.55724   3
  -1  -4  -5 39.9292 3.10427   1
  -1  -4  -5 40.2826 2.34939   2
   1   4   5 38.6613 2.40878   4
   1   4   5 37.6798 2.44473   3
  -2  -4  -5 44.0458 2.62350   2
  -2  -4  -5 47.1832 3.55348   1
   2   4   5 42.6707 2.70795   4
   2   4   5 42.7053 2.62861   3
  -3  -4  -5 26.7286 2.41919   2
  -3  -4  -5 30.6714 3.89652   1
   3   4   5 28.1789 2.49003   3
  -4  -4  -5 12.1800 3.76912   1
  -4  -4  -5 10.4191 2.35923   2
   4   4   5 13.0001 2.36114   3
   4   4   5 12.1209 2.88838   4
  -5  -4  -5 -5.5450 3.78836   1
  -5  -4  -5 -0.7822 2.68884   2
   5   4   5 0.55119 2.26636   3
   5   4   5 0.64485 2.72594   4
  -6  -4  -5 4.11426 4.21453   2
  -6  -4  -5 -3.7805 5.11949   1
   6   4   5 -0.7676 2.97962   4
  -7  -4  -5 -5.4653 5.85901   1
   7   4   5 6.72265 3.65619   4
  -8  -4  -5 5.34803 7.43552   1
   8   4   5 -6.1684 3.83964   4
  13  -5  -5 1.72951 7.57089   3
  13  -5  -5 -7.3933 6.34057   1
  13  -5  -5 0.29529 6.25005   4
  13  -5  -5 23.1136 7.13320   2
  12  -5  -5 -9.0361 5.25149   1
  12  -5  -5 10.9788 5.78868   2
 -12   5   5 -6.8024 6.99885   3
 -12   5   5 6.05279 5.09383   4
  11  -5  -5 11.4039 5.22022   2
  11  -5  -5 -3.5010 4.52280   1
 -11   5   5 -3.6604 5.14436   3
 -11   5   5 4.15922 4.98689   4
  10  -5  -5 7.44835 3.43222   1
  10  -5  -5 7.85348 4.53796   2
 -10   5   5 -0.5539 4.72365   4
 -10   5   5 1.94409 4.70077   3
   9  -5  -5 44.0012 4.92212   2
   9  -5  -5 39.9462 3.78014   1
  -9   5   5 44.7365 5.65077   3
   8  -5  -5 1.61339 2.04734   1
   8  -5  -5 3.58850 2.84492   2
  -8   5   5 1.90218 3.05574   3
  -8   5   5 2.25043 2.46893   4
   7  -5  -5 193.070 6.54799   1
   7  -5  -5 181.409 7.74161   2
  -7   5   5 198.484 7.00309   4
  -7   5   5 176.037 8.06938   3
   6  -5  -5 10.3893 2.59412   2
   6  -5  -5 12.8980 1.74316   1
  -6   5   5 13.0949 2.19091   4
   5  -5  -5 20.2271 2.54655   2
   5  -5  -5 21.5933 1.66765   1
  -5   5   5 17.8219 2.39909   3
  -5   5   5 19.6362 2.26997   4
   4  -5  -5 105.964 3.64017   1
   4  -5  -5 105.413 4.72681   2
  -4   5   5 112.226 4.14166   4
  -4   5   5 111.703 4.83080   3
   3  -5  -5 229.570 6.93027   1
   3  -5  -5 236.193 7.89290   2
  -3   5   5 240.290 7.99542   3
  -3   5   5 240.348 7.10303   4
   2  -5  -5 65.5711 3.26162   2
   2  -5  -5 66.5918 3.07923   1
  -2   5   5 65.8273 2.86737   4
  -2   5   5 65.1825 3.42259   3
   1  -5  -5 120.604 4.62941   2
   1  -5  -5 120.178 4.77631   1
  -1   5   5 120.021 4.81729   3
  -1   5   5 118.648 4.29131   4
   0  -5  -5 1.80619 1.20368   2
   0  -5  -5 -1.9498 1.74471   1
   0   5   5 2.13223 1.21216   4
   0   5   5 0.75912 1.52540   3
  -1  -5  -5 14.5669 1.92724   2
  -1  -5  -5 11.6297 2.51943   1
   1   5   5 14.5062 1.97354   4
   1   5   5 11.4831 1.99524   3
  -2  -5  -5 29.7798 2.60568   2
  -2  -5  -5 30.7732 3.98708   1
   2   5   5 23.4987 2.65369   3
   2   5   5 26.0615 2.71675   4
  -3  -5  -5 9.42652 2.28772   2
  -3  -5  -5 13.3961 3.61204   1
   3   5   5 12.5539 2.20063   3
   3   5   5 9.98041 2.48854   4
  -4  -5  -5 3.29392 3.86261   1
  -4  -5  -5 11.2972 3.06397   2
   4   5   5 7.90725 2.50007   4
   4   5   5 9.80354 2.42636   3
  -5  -5  -5 -1.2000 3.27561   2
  -5  -5  -5 -1.2280 4.96475   1
   5   5   5 -2.3284 2.79130   4
  -6  -5  -5 -1.5306 4.68608   2
  -6  -5  -5 -0.0200 6.02996   1
   6   5   5 0.85200 3.16779   4
  -7  -5  -5 3.95686 8.08352   1
   7   5   5 2.21247 4.08969   4
  13  -6  -5 -1.4030 6.67774   2
 -13   6   5 7.96339 7.24504   4
 -13   6   5 6.43555 9.74154   3
  12  -6  -5 1.65225 5.47169   2
  12  -6  -5 4.20581 4.94136   1
 -12   6   5 5.30228 8.00488   3
 -12   6   5 1.79653 5.61988   4
  11  -6  -5 -5.8231 3.85293   1
  11  -6  -5 1.94222 4.52231   2
 -11   6   5 -9.4616 4.63444   4
 -11   6   5 -9.7593 5.55674   3
  10  -6  -5 11.0671 3.26275   1
  10  -6  -5 3.05982 4.27638   2
 -10   6   5 10.7365 4.53893   4
 -10   6   5 6.50303 5.23826   3
   9  -6  -5 20.3255 3.16242   1
   9  -6  -5 19.3298 4.26235   2
  -9   6   5 27.2373 4.37932   4
  -9   6   5 18.0478 4.72673   3
   8  -6  -5 19.1265 2.64682   1
   8  -6  -5 17.5676 4.01677   2
  -8   6   5 15.6903 3.75278   3
  -8   6   5 20.8219 3.52577   4
   7  -6  -5 84.7323 6.00871   2
   7  -6  -5 77.5020 3.47343   1
  -7   6   5 83.8619 4.41747   4
  -7   6   5 81.6165 5.51632   3
   6  -6  -5 34.7216 3.40580   2
   6  -6  -5 42.5596 2.22328   1
  -6   6   5 37.7311 4.15907   3
  -6   6   5 36.4896 3.13514   4
   5  -6  -5 7.52173 1.33601   1
  -5   6   5 12.2603 2.15885   4
   4  -6  -5 83.7585 3.20477   1
   4  -6  -5 95.0740 4.34046   2
  -4   6   5 85.6057 4.38196   3
  -4   6   5 87.7027 3.81909   4
   3  -6  -5 98.2421 3.77676   1
   3  -6  -5 98.8084 4.41370   2
  -3   6   5 94.5423 3.88985   4
  -3   6   5 95.0002 4.47657   3
   2  -6  -5 36.3753 2.53145   2
   2  -6  -5 36.3258 2.64347   1
  -2   6   5 32.2551 2.21570   4
  -2   6   5 37.8077 2.94992   3
   1  -6  -5 55.9214 3.56428   1
   1  -6  -5 60.0321 3.22604   2
  -1   6   5 60.6330 3.63621   3
  -1   6   5 56.9003 2.98092   4
   0  -6  -5 2.57992 2.28044   1
   0  -6  -5 2.20324 1.44943   2
   0   6   5 3.59379 1.88302   3
  -1  -6  -5 5.00541 2.61467   1
   1   6   5 3.62251 1.96984   4
   1   6   5 6.80165 2.18014   3
  -2  -6  -5 12.8923 2.51645   2
  -2  -6  -5 15.9337 3.95731   1
   2   6   5 10.1908 2.62474   3
   2   6   5 8.11801 2.25624   4
  -3  -6  -5 2.78954 2.92471   2
  -3  -6  -5 9.04843 4.66460   1
   3   6   5 4.03800 2.60458   3
   3   6   5 9.14463 2.72781   4
  -4  -6  -5 3.24822 2.99102   2
  -4  -6  -5 4.48098 5.21882   1
   4   6   5 3.20091 2.79311   4
  -5  -6  -5 -5.2685 3.89315   2
  -5  -6  -5 -5.8636 5.46765   1
   5   6   5 3.04153 2.67049   4
  -6  -6  -5 4.10999 7.83180   1
  -6  -6  -5 -9.3943 5.10451   2
  13  -7  -5 -1.6997 6.02691   2
  12  -7  -5 3.38644 5.02909   2
 -12   7   5 11.1295 7.78698   3
 -12   7   5 -3.8285 5.69193   4
  11  -7  -5 -1.8037 4.43401   2
 -11   7   5 2.86519 5.26912   4
 -11   7   5 4.74125 5.84902   3
  10  -7  -5 1.31215 3.92808   2
  10  -7  -5 0.56074 2.91014   1
 -10   7   5 -2.8990 4.78092   3
 -10   7   5 2.64798 4.71842   4
   9  -7  -5 12.2706 2.57001   1
   9  -7  -5 13.2898 3.95871   2
  -9   7   5 10.0816 3.86356   3
  -9   7   5 17.6453 4.18303   4
   8  -7  -5 39.9092 2.74931   1
   8  -7  -5 38.9987 4.46338   2
  -8   7   5 37.8602 4.80579   3
   7  -7  -5 45.0587 2.43365   1
   7  -7  -5 46.2343 4.34057   2
  -7   7   5 42.7423 4.28204   3
  -7   7   5 46.7738 4.07537   4
   6  -7  -5 25.6429 2.48121   1
   6  -7  -5 20.6710 1.74721   1
   6  -7  -5 24.5171 4.29477   2
  -6   7   5 21.4528 3.37289   3
  -6   7   5 25.4070 3.15217   4
   5  -7  -5 -0.8756 1.98632   2
   5  -7  -5 5.44151 1.83875   1
   5  -7  -5 -0.5455 1.12055   1
  -5   7   5 -1.6426 1.81112   4
  -5   7   5 -1.4376 2.55587   3
   4  -7  -5 14.0921 2.87084   2
   4  -7  -5 13.7340 1.73095   1
  -4   7   5 13.4834 2.12726   4
  -4   7   5 12.7648 2.32767   1
   3  -7  -5 23.3685 2.67971   2
   3  -7  -5 22.6556 2.45080   1
  -3   7   5 25.6046 2.93394   3
  -3   7   5 22.6200 2.37566   4
   2  -7  -5 52.2564 3.45454   1
   2  -7  -5 55.7730 3.69703   2
  -2   7   5 61.4980 3.96537   3
  -2   7   5 54.2040 3.11598   4
   1  -7  -5 24.8015 3.19727   1
  -1   7   5 29.2854 2.94319   4
  -1   7   5 26.5680 3.33719   3
   0  -7  -5 3.44722 2.72820   1
   0  -7  -5 0.58510 1.82610   2
   0   7   5 1.16806 2.27779   3
   0   7   5 0.47664 2.08887   4
  -1  -7  -5 -0.3117 3.59716   1
  -1  -7  -5 2.29151 2.18630   2
   1   7   5 0.87931 2.09996   4
   1   7   5 0.95064 2.49792   3
  -2  -7  -5 3.43306 2.46357   2
  -2  -7  -5 6.20105 4.48825   1
   2   7   5 -1.0874 2.79866   3
   2   7   5 0.57367 2.41234   4
  -3  -7  -5 4.89438 2.80226   2
  -3  -7  -5 6.20971 5.09144   1
   3   7   5 1.93195 2.46646   4
  -4  -7  -5 0.00170 3.80108   2
  -4  -7  -5 6.51046 5.94419   1
   4   7   5 1.86862 2.86792   4
  -5  -7  -5 7.69354 6.84370   1
  -5  -7  -5 3.29648 4.40197   2
   5   7   5 -1.3822 3.24310   4
  -6  -7  -5 -0.8445 7.78564   1
  -6  -7  -5 -0.1529 6.14300   2
   6   7   5 2.44932 3.87986   4
  12  -8  -5 14.1082 5.60397   2
 -12   8   5 9.22058 6.91473   4
 -12   8   5 -5.2132 7.78438   3
  11  -8  -5 -5.7509 4.63067   2
 -11   8   5 10.5030 5.45744   4
 -11   8   5 -4.4268 5.80540   3
  10  -8  -5 -0.5098 3.64670   2
 -10   8   5 -12.335 4.25222   3
 -10   8   5 0.96089 4.45610   4
   9  -8  -5 17.2866 4.65473   2
  -9   8   5 19.5622 4.43770   4
  -9   8   5 11.5719 4.13938   3
   8  -8  -5 31.6990 4.28146   2
  -8   8   5 30.8983 4.75147   4
  -8   8   5 28.4537 4.53507   3
   7  -8  -5 34.5645 4.06537   2
  -7   8   5 24.7162 3.93008   3
  -7   8   5 38.1062 4.05797   4
   6  -8  -5 13.4299 2.85022   2
  -6   8   5 11.2014 3.22585   3
  -6   8   5 11.5029 3.74678   4
   5  -8  -5 0.69687 1.94664   2
  -5   8   5 5.69158 2.95999   3
   4  -8  -5 13.3989 2.69764   2
   4  -8  -5 20.7273 2.29140   1
  -4   8   5 9.08252 3.44437   3
  -4   8   5 22.2333 3.25812   4
  -4   8   5 17.4917 2.45087   1
   3  -8  -5 61.2902 4.24908   2
   3  -8  -5 68.0762 3.59256   1
  -3   8   5 73.8577 4.32157   4
  -3   8   5 65.3431 5.15584   3
   2  -8  -5 21.8091 3.22026   1
   2  -8  -5 17.4627 2.78124   2
  -2   8   5 19.4202 3.34161   4
  -2   8   5 26.2494 3.54865   3
   1  -8  -5 0.24020 2.03744   2
   1  -8  -5 4.48249 2.90010   1
  -1   8   5 4.71224 2.08244   4
  -1   8   5 6.68180 3.10595   3
   0  -8  -5 1.37892 3.40744   1
   0  -8  -5 1.54064 2.18792   2
   0   8   5 3.23833 2.69926   3
   0   8   5 1.31832 2.19886   4
  -1  -8  -5 -5.3401 2.39186   2
   1   8   5 1.87160 2.44510   4
   1   8   5 -1.5825 2.97735   3
  -2  -8  -5 10.6237 5.24530   1
  -2  -8  -5 3.19341 2.84312   2
   2   8   5 -1.2348 2.73747   4
  -3  -8  -5 -1.8259 6.44735   1
  -3  -8  -5 3.37591 3.24535   2
   3   8   5 -5.4554 2.78551   4
  -4  -8  -5 7.45356 4.07730   2
  -4  -8  -5 9.91619 6.85382   1
   4   8   5 -3.6519 3.32380   4
  -5  -8  -5 3.00521 5.53045   2
   5   8   5 -3.1314 3.83159   4
  12  -9  -5 13.1919 5.54090   2
 -12   9   5 6.25244 8.13675   3
 -12   9   5 5.84104 6.79412   4
  11  -9  -5 3.73829 4.32721   2
 -11   9   5 4.99082 5.70080   4
 -11   9   5 -7.4423 5.93944   3
  10  -9  -5 -4.6020 4.21272   2
 -10   9   5 -2.3300 4.92010   3
 -10   9   5 13.2662 5.16327   4
   9  -9  -5 9.40913 3.70009   2
  -9   9   5 -0.1315 4.17996   3
  -9   9   5 5.61224 4.43217   4
   8  -9  -5 13.6813 3.32225   2
  -8   9   5 16.7061 4.45358   4
  -8   9   5 14.0018 3.83914   3
   7  -9  -5 5.50017 3.17540   2
  -7   9   5 7.25527 3.34132   3
  -7   9   5 1.42073 3.59041   4
   6  -9  -5 11.7461 2.58501   2
  -6   9   5 13.9523 3.79342   3
  -6   9   5 12.4558 3.72683   4
   5  -9  -5 1.28539 2.60531   2
  -5   9   5 5.51013 3.61501   3
  -5   9   5 0.58839 2.55398   4
   4  -9  -5 8.77530 2.62250   2
   4  -9  -5 4.16842 2.09633   1
  -4   9   5 3.31106 3.39900   3
  -4   9   5 7.77633 2.92275   4
   3  -9  -5 2.19049 2.17593   2
   3  -9  -5 8.01381 2.66329   1
  -3   9   5 7.60072 3.31535   3
  -3   9   5 4.76158 2.75045   4
   2  -9  -5 -1.7310 2.12352   2
   2  -9  -5 1.03777 3.01688   1
  -2   9   5 0.89050 3.42217   3
  -2   9   5 2.48770 2.32396   4
   1  -9  -5 1.23367 3.36019   1
   1  -9  -5 3.13317 2.32692   2
  -1   9   5 5.65565 3.22768   3
  -1   9   5 1.34122 2.55916   4
   0  -9  -5 -0.6789 4.29152   1
   0  -9  -5 1.01098 2.44566   2
   0   9   5 1.92817 2.58674   4
   0   9   5 12.7406 3.73509   3
  -1  -9  -5 1.43574 3.05546   2
  -1  -9  -5 6.98947 5.21806   1
   1   9   5 6.74544 3.09897   4
  -2  -9  -5 8.12696 6.01842   1
  -2  -9  -5 -7.3162 2.99876   2
   2   9   5 -2.7995 2.84283   4
  -3  -9  -5 -7.2116 6.31288   1
  -3  -9  -5 -4.6963 3.56407   2
   3   9   5 -0.4601 3.59032   4
  -4  -9  -5 14.2949 8.78111   1
  -4  -9  -5 1.95448 4.97056   2
   4   9   5 -2.0513 4.09377   4
  12 -10  -5 2.28671 5.57049   2
 -12  10   5 -14.398 6.71949   4
 -12  10   5 -2.2554 8.10461   3
  11 -10  -5 3.28388 4.28141   2
 -11  10   5 3.45234 8.30632   3
 -11  10   5 9.29246 6.30676   4
  10 -10  -5 4.22788 4.33473   2
 -10  10   5 10.0574 5.14758   4
 -10  10   5 2.79366 5.25703   3
   9 -10  -5 -5.0717 3.57756   2
  -9  10   5 -6.2282 4.53442   3
  -9  10   5 2.07323 4.82033   4
   8 -10  -5 10.5769 3.94149   2
  -8  10   5 12.6471 4.66780   4
  -8  10   5 4.27078 4.22240   3
   7 -10  -5 1.60788 3.24959   2
  -7  10   5 10.6252 4.16373   3
  -7  10   5 9.08601 4.31051   4
   6 -10  -5 8.99947 2.48633   2
  -6  10   5 3.44779 3.60056   3
  -6  10   5 9.94518 3.84961   4
   5 -10  -5 0.54731 2.54865   2
  -5  10   5 -1.3820 3.02341   4
  -5  10   5 3.66855 4.02046   3
   4 -10  -5 -3.2823 2.61010   2
  -4  10   5 -2.9973 2.73369   4
  -4  10   5 0.90618 3.46756   3
   3 -10  -5 2.65235 2.54346   2
  -3  10   5 2.73071 2.61988   4
  -3  10   5 1.87989 3.82391   3
   2 -10  -5 6.71698 3.53774   1
   2 -10  -5 1.91954 2.48176   2
  -2  10   5 8.76652 4.42765   3
  -2  10   5 11.6409 3.25526   4
   1 -10  -5 2.20721 4.12127   1
   1 -10  -5 0.59164 2.85220   2
  -1  10   5 -3.0138 2.62312   4
  -1  10   5 -0.1792 4.53430   3
   0 -10  -5 2.84410 5.54477   1
   0 -10  -5 -1.3127 2.99021   2
   0  10   5 4.99443 2.89981   4
  -1 -10  -5 -0.1967 3.43633   2
  -1 -10  -5 22.7537 6.62469   1
   1  10   5 -1.4984 3.36391   4
  -2 -10  -5 17.8855 7.70845   1
  -2 -10  -5 -2.0132 3.56908   2
  -3 -10  -5 5.24852 4.60280   2
  -3 -10  -5 -8.6296 8.22007   1
   3  10   5 -4.0052 4.02006   4
  11 -11  -5 3.20555 4.99658   2
 -11  11   5 2.11921 6.09535   4
 -11  11   5 0.73329 7.21181   3
  10 -11  -5 -0.6708 4.18438   2
 -10  11   5 0.50546 5.64168   4
 -10  11   5 -5.5238 8.59284   3
   9 -11  -5 -2.3884 3.45196   2
  -9  11   5 9.98398 5.91542   4
  -9  11   5 -0.1364 4.98013   3
   8 -11  -5 1.22373 3.15431   2
  -8  11   5 1.60044 4.69845   3
  -8  11   5 6.50805 5.17710   4
   7 -11  -5 3.63253 3.35454   2
  -7  11   5 -0.6572 4.06574   3
  -7  11   5 1.99932 4.80555   4
   6 -11  -5 2.45410 2.88429   2
  -6  11   5 -1.6681 4.36507   3
  -6  11   5 3.41845 3.80131   4
   5 -11  -5 -2.8692 2.31849   2
  -5  11   5 0.96079 3.71795   4
  -5  11   5 0.14568 4.32330   3
   4 -11  -5 5.32712 2.89043   2
  -4  11   5 1.91462 3.61456   4
  -4  11   5 -0.6468 4.41769   3
   3 -11  -5 3.53808 2.81703   2
  -3  11   5 0.30317 3.24291   4
  -3  11   5 -3.9514 4.34314   3
   2 -11  -5 5.52521 2.86959   2
  -2  11   5 3.99346 4.67908   3
  -2  11   5 -1.4073 3.18849   4
   1 -11  -5 5.28461 3.33561   2
  -1  11   5 0.91256 3.29980   4
   0 -11  -5 8.44141 3.79956   2
   0 -11  -5 1.41807 7.99360   1
   0  11   5 2.06091 3.24645   4
  -1 -11  -5 1.55507 7.70291   1
  -1 -11  -5 -5.3438 4.18967   2
   1  11   5 1.05560 3.49076   4
 -10  12   5 -0.9738 6.40203   4
 -10  12   5 1.20949 5.94416   3
   9 -12  -5 -3.9180 4.16511   2
  -9  12   5 4.54489 5.83069   4
  -9  12   5 1.46500 8.59166   3
   8 -12  -5 3.54030 4.21237   2
  -8  12   5 2.94863 4.95679   3
  -8  12   5 -0.0529 5.67555   4
   7 -12  -5 1.25339 3.64763   2
  -7  12   5 7.36657 4.80939   4
  -7  12   5 3.65292 5.41796   3
   6 -12  -5 1.30532 3.29335   2
  -6  12   5 -2.2053 4.74803   3
  -6  12   5 6.61743 4.60747   4
   5 -12  -5 0.21281 2.88577   2
  -5  12   5 -6.0991 4.25281   4
  -5  12   5 -1.2232 5.04113   3
   4 -12  -5 -1.5191 2.98613   2
  -4  12   5 -10.010 5.21241   3
  -4  12   5 4.68460 4.46395   4
   3 -12  -5 2.76211 3.51113   2
  -3  12   5 3.98729 4.32186   4
  -3  12   5 -0.1781 5.55651   3
   2 -12  -5 2.31114 3.34675   2
  -2  12   5 2.42357 3.73391   4
   1 -12  -5 -2.0883 4.13808   2
  -1  12   5 2.97202 4.66263   4
   0 -12  -5 3.86113 4.12216   2
   0  12   5 -5.4588 3.73487   4
   9 -13  -5 -1.1177 4.14558   2
  -9  13   5 8.05721 6.99145   4
  -9  13   5 0.03291 6.14844   3
   8 -13  -5 -1.9277 3.77823   2
  -8  13   5 8.64074 6.14479   4
   7 -13  -5 -3.1741 3.93417   2
  -7  13   5 -10.056 5.89391   3
  -7  13   5 6.70660 5.56832   4
   6 -13  -5 8.06796 4.10731   2
  -6  13   5 2.69851 5.65334   4
  -6  13   5 -6.4499 6.57638   3
   5 -13  -5 0.69905 3.55356   2
  -5  13   5 -2.4889 4.83310   4
  -5  13   5 -2.6981 6.21261   3
   4 -13  -5 3.04895 3.64504   2
  -4  13   5 3.37448 4.68941   4
  -4  13   5 -5.0608 6.47821   3
   3 -13  -5 0.57990 3.44652   2
  -3  13   5 14.4894 5.24142   4
   2 -13  -5 -2.8217 3.81293   2
  -2  13   5 1.54483 4.60757   4
  -1  13  -6 9.55103 5.56743   4
   1 -13   6 3.08671 4.76805   2
  -2  13  -6 1.78509 5.22018   4
   2 -13   6 -7.9700 6.38289   2
  -3  13  -6 10.2679 9.79740   4
   3 -13   6 -3.9185 5.44019   2
   3 -13   6 17.7790 5.48680   3
  -4  13  -6 8.37915 6.09348   4
   4 -13   6 1.48982 5.28804   3
   4 -13   6 -0.5714 4.72459   2
  -5  13  -6 8.08966 6.19193   4
   5 -13   6 -0.7338 4.93292   3
   5 -13   6 -2.3935 5.03648   2
  -6  13  -6 4.66926 6.18078   4
   6 -13   6 10.2726 5.48849   2
   6 -13   6 3.35251 5.03765   3
  -7  13  -6 -2.5569 6.61821   4
   7 -13   6 -1.3317 5.07403   3
   1  12  -6 1.03527 4.50732   4
   1  12  -6 -1.5058 6.62870   1
  -1 -12   6 5.17110 4.51577   2
   0  12  -6 -3.7571 5.37341   1
   0  12  -6 -1.3902 4.67395   4
   0 -12   6 -0.6558 4.56440   2
  -1  12  -6 4.96394 5.09340   1
  -1  12  -6 5.82389 4.63171   4
   1 -12   6 8.82865 4.49953   2
  -2  12  -6 -5.2947 3.89175   4
   2 -12   6 -4.6684 4.05504   2
   2 -12   6 5.18898 4.23369   3
  -3  12  -6 3.97839 4.68666   4
   3 -12   6 0.07139 4.14677   3
   3 -12   6 0.38277 4.01914   2
  -4  12  -6 1.25925 4.61934   4
   4 -12   6 2.38071 3.97908   2
   4 -12   6 -6.0661 3.98751   3
  -5  12  -6 6.67635 5.42670   4
   5 -12   6 -2.5079 4.27639   2
   5 -12   6 0.03217 4.26620   3
  -6  12  -6 -3.1031 5.38272   4
   6 -12   6 0.07778 4.46396   3
   6 -12   6 7.32120 4.67336   2
  -7  12  -6 -6.1398 5.94577   4
   7 -12   6 0.66979 4.39971   3
  -8  12  -6 4.36144 6.34476   4
   8 -12   6 -2.7714 4.41702   3
   3  11  -6 2.64204 4.56774   4
   3  11  -6 0.37826 7.08350   1
  -3 -11   6 1.52941 4.70323   2
   2  11  -6 -1.9769 4.18851   4
   2  11  -6 -0.9015 5.72158   1
  -2 -11   6 2.03255 7.19674   2
   1  11  -6 2.02879 5.43125   1
   1  11  -6 -1.6751 3.95301   4
  -1 -11   6 -1.2614 3.64042   2
   0  11  -6 4.40073 4.73639   1
   0  11  -6 -5.0427 3.96653   4
   0 -11   6 0.59017 3.74609   2
  -1  11  -6 -4.8618 4.07704   1
  -1  11  -6 3.70947 3.80827   4
   1 -11   6 -4.2350 6.67361   3
   1 -11   6 -1.8916 3.53475   2
  -2  11  -6 1.17634 3.80080   4
  -2  11  -6 -9.3160 3.71421   1
   2 -11   6 0.18188 3.97331   2
   2 -11   6 -1.6883 3.49450   3
  -3  11  -6 0.08495 4.28077   1
  -3  11  -6 -2.6206 4.49542   4
   3 -11   6 -1.7308 3.31146   2
   3 -11   6 -1.8782 3.55452   3
  -4  11  -6 -3.7942 4.30532   4
  -4  11  -6 -2.3414 3.67917   1
   4 -11   6 0.70501 3.98509   2
   4 -11   6 -1.9377 3.54359   3
  -5  11  -6 7.39785 4.40737   4
   5 -11   6 4.71800 3.65993   2
   5 -11   6 -3.0393 3.41467   3
  -6  11  -6 -4.2782 5.05060   4
   6 -11   6 -2.5569 3.36388   3
   6 -11   6 -2.9987 3.75987   2
  -7  11  -6 4.52480 5.11491   4
   7 -11   6 -2.7373 3.52842   3
  -9  11  -6 4.96726 6.27759   4
   9 -11   6 -3.1734 3.98265   3
   4  10  -6 7.90933 5.87381   1
   4  10  -6 0.60373 4.16916   4
  -4 -10   6 -6.1081 4.11536   2
   3  10  -6 9.06532 4.06217   4
   3  10  -6 2.11255 5.49106   1
  -3 -10   6 3.26691 4.89427   2
   2  10  -6 -1.1303 3.73839   4
   2  10  -6 2.82117 5.14757   1
  -2 -10   6 1.83021 3.35897   2
   1  10  -6 3.74984 4.58829   1
   1  10  -6 2.20437 3.37140   4
  -1 -10   6 3.96098 2.93618   2
   0  10  -6 1.26795 3.38242   4
   0  10  -6 0.24125 3.79867   1
   0 -10   6 2.89655 3.05789   3
   0 -10   6 -0.6243 2.96509   2
  -1  10  -6 5.86951 3.53337   4
  -1  10  -6 2.99757 3.57261   1
   1 -10   6 -5.6866 2.94327   3
   1 -10   6 -0.6931 3.04423   2
  -2  10  -6 6.01695 3.52053   4
   2 -10   6 1.96774 3.20651   2
   2 -10   6 -0.8450 3.01829   3
  -3  10  -6 3.58872 3.73127   4
  -3  10  -6 6.82710 3.40174   1
   3 -10   6 10.5383 3.18411   2
   3 -10   6 2.46624 3.32921   3
  -4  10  -6 6.77278 4.02329   4
  -4  10  -6 3.84403 3.31481   1
   4 -10   6 4.64073 3.05344   3
   4 -10   6 8.42577 3.45657   2
  -5  10  -6 1.88112 3.41944   1
  -5  10  -6 -0.4010 3.86128   4
   5 -10   6 0.81772 3.05530   3
   5 -10   6 1.66847 3.06878   2
  -6  10  -6 3.03381 4.41456   4
  -6  10  -6 -0.4424 4.22572   1
   6 -10   6 -1.6739 3.37650   2
   6 -10   6 1.26717 3.41880   3
  -7  10  -6 2.22516 4.71710   4
   7 -10   6 1.40025 3.41990   3
  -8  10  -6 0.04725 5.31644   4
   8 -10   6 2.52483 3.43292   3
  -9  10  -6 2.04799 4.91579   4
   9 -10   6 -2.9754 3.89899   3
 -10  10  -6 0.28779 6.12462   4
  10 -10   6 -1.4487 3.88875   3
   5   9  -6 -5.8950 3.77803   4
   5   9  -6 -2.4087 6.05289   1
  -5  -9   6 -6.6018 4.55184   2
   4   9  -6 3.44636 3.63224   4
   4   9  -6 4.31506 5.06539   1
  -4  -9   6 -9.0496 4.15753   2
   3   9  -6 4.08041 3.10121   4
   3   9  -6 4.82754 4.62894   1
  -3  -9   6 2.04830 4.03130   2
   2   9  -6 6.00023 3.13422   4
   2   9  -6 -4.3975 4.10143   1
  -2  -9   6 -2.9084 3.09682   2
   1   9  -6 -1.0739 3.42020   1
   1   9  -6 -0.1753 2.90164   4
  -1  -9   6 2.29353 2.29724   3
  -1  -9   6 -2.6564 2.84559   2
   0   9  -6 11.2771 3.66182   1
   0   9  -6 4.24793 3.23700   4
   0  -9   6 6.57849 3.25911   2
   0  -9   6 9.42605 2.53758   3
  -1   9  -6 0.58454 3.12657   4
  -1   9  -6 0.44537 3.22970   1
   1  -9   6 0.44745 3.12860   2
  -2   9  -6 7.95039 2.87487   1
  -2   9  -6 2.96423 3.32712   4
   2  -9   6 4.20771 2.78834   2
   2  -9   6 3.10067 2.44991   3
  -3   9  -6 7.34513 3.68594   4
  -3   9  -6 9.63941 2.76560   1
   3  -9   6 4.57046 2.92413   3
   3  -9   6 12.5298 2.86185   2
  -4   9  -6 4.43547 3.77015   4
  -4   9  -6 -0.7681 2.79940   1
   4  -9   6 7.34580 3.28188   2
   4  -9   6 2.92267 2.39111   3
  -5   9  -6 -3.7333 3.36442   4
  -5   9  -6 -2.1258 2.97198   1
   5  -9   6 -3.7418 2.63954   2
   5  -9   6 -3.6448 2.48717   3
  -6   9  -6 4.03242 4.35613   4
  -6   9  -6 7.12588 4.31359   1
   6  -9   6 1.22865 2.79321   3
   6  -9   6 0.95870 2.59687   2
  -7   9  -6 2.36250 7.06908   1
  -7   9  -6 -0.0183 4.25192   4
   7  -9   6 -1.5734 2.94223   3
  -8   9  -6 1.87107 6.38412   1
  -8   9  -6 2.87918 4.44647   4
   8  -9   6 -2.4757 3.37681   3
  -9   9  -6 5.63597 6.65434   1
  -9   9  -6 0.37733 5.34652   4
   9  -9   6 -0.1873 3.43631   3
 -10   9  -6 -3.6198 5.18055   4
  10  -9   6 -4.5303 3.83229   3
   6   8  -6 -0.8242 5.06768   1
   6   8  -6 -4.6152 3.60931   4
  -6  -8   6 -3.0264 4.39369   2
   5   8  -6 -6.8535 4.32903   1
   5   8  -6 -1.5799 3.19151   4
  -5  -8   6 -0.9767 4.18186   2
   4   8  -6 0.02695 4.08102   1
   4   8  -6 -2.2924 2.69020   4
  -4  -8   6 -6.1892 3.59985   2
   3   8  -6 6.07940 3.82823   1
   3   8  -6 2.88466 2.78070   4
  -3  -8   6 6.04157 3.12337   2
   2   8  -6 11.9438 2.96587   4
   2   8  -6 4.63585 3.55389   1
  -2  -8   6 12.3388 3.58827   2
  -2  -8   6 12.1747 2.10730   3
   1   8  -6 8.79294 2.89543   4
  -1  -8   6 9.84739 2.16379   3
  -1  -8   6 7.83784 3.13535   2
   0   8  -6 15.0045 3.49214   4
   0   8  -6 13.0025 3.15805   1
   0  -8   6 14.4749 3.23986   2
   0  -8   6 12.7046 2.31783   3
  -1   8  -6 3.76674 2.78853   4
  -1   8  -6 -0.7893 2.35946   1
   1  -8   6 2.02836 2.52615   2
   1  -8   6 -0.1845 1.83728   3
  -2   8  -6 7.14660 2.60123   1
  -2   8  -6 10.1523 4.68131   4
   2  -8   6 6.36731 3.11078   2
   2  -8   6 5.47005 2.15026   3
  -3   8  -6 9.64264 3.30918   4
  -3   8  -6 8.06866 2.53873   1
   3  -8   6 11.1801 2.27263   2
  -4   8  -6 10.8626 3.65207   4
  -4   8  -6 7.91737 2.67737   1
   4  -8   6 8.25572 2.41464   3
   4  -8   6 9.83926 2.32612   2
  -5   8  -6 1.12216 2.67425   1
  -5   8  -6 0.17814 3.45943   4
   5  -8   6 -0.4246 2.19227   2
   5  -8   6 -0.4403 2.21398   3
  -6   8  -6 14.8409 3.79690   1
  -6   8  -6 8.21583 4.08737   4
   6  -8   6 8.47783 2.81102   3
   6  -8   6 4.12159 2.40407   2
  -7   8  -6 1.81189 4.36129   1
  -7   8  -6 2.08294 4.37092   4
   7  -8   6 -2.4307 2.50442   3
  -8   8  -6 -6.7994 5.02319   1
  -8   8  -6 2.06868 4.21074   4
   8  -8   6 -5.2163 2.92108   3
  -9   8  -6 0.72019 6.57326   1
  -9   8  -6 2.57433 5.00517   4
   9  -8   6 -1.5887 2.99408   3
 -10   8  -6 0.27978 5.26882   4
 -10   8  -6 -4.8287 7.59186   1
  10  -8   6 4.92075 4.09263   3
   7   7  -6 1.07476 3.73501   4
   7   7  -6 -3.5514 5.58541   1
  -7  -7   6 1.99176 4.90410   2
   6   7  -6 -1.7605 3.01599   4
   6   7  -6 3.81887 4.37361   1
  -6  -7   6 -0.3957 3.84477   2
   5   7  -6 -2.4545 2.60587   4
   5   7  -6 -0.4570 3.81076   1
  -5  -7   6 1.20734 3.55561   2
   4   7  -6 5.37870 3.57082   1
   4   7  -6 -1.5384 2.27652   4
  -4  -7   6 1.64846 3.22438   2
   3   7  -6 6.36629 2.73817   4
   3   7  -6 7.03989 3.16168   1
  -3  -7   6 11.8918 3.60287   2
  -3  -7   6 2.60317 1.73765   3
   2   7  -6 12.9684 3.90709   1
   2   7  -6 19.7814 2.96802   4
  -2  -7   6 13.6268 3.06229   2
  -2  -7   6 12.5759 1.89255   3
   1   7  -6 20.7711 3.52704   1
  -1  -7   6 15.5209 2.88426   2
  -1  -7   6 19.0991 2.44273   3
   0   7  -6 2.81018 1.90820   4
   0   7  -6 1.13672 2.14712   1
   0  -7   6 3.26224 1.62021   3
   0  -7   6 6.71954 2.43649   2
  -1   7  -6 3.37350 1.86657   1
  -1   7  -6 -0.2337 1.98027   4
   1  -7   6 5.86138 1.71504   3
   1  -7   6 -1.8662 1.83416   2
  -2   7  -6 15.3607 2.50223   1
   2  -7   6 13.4200 2.38134   3
   2  -7   6 14.2266 2.51377   2
  -3   7  -6 29.1327 3.80783   4
  -3   7  -6 31.1163 2.99085   1
   3  -7   6 23.9333 3.01493   3
   3  -7   6 28.1605 2.86362   2
  -4   7  -6 15.3031 6.45705   4
  -4   7  -6 16.2504 2.65995   1
   4  -7   6 13.2562 2.64878   3
   4  -7   6 11.8630 2.19705   2
  -5   7  -6 3.60757 2.63394   1
  -5   7  -6 6.72636 3.45653   4
   5  -7   6 6.55255 2.03213   2
   5  -7   6 6.03185 2.45725   3
  -6   7  -6 1.66289 3.48554   1
  -6   7  -6 0.80701 3.45857   4
   6  -7   6 3.08591 1.87936   2
   6  -7   6 2.07401 2.30985   3
  -7   7  -6 -1.9622 3.72558   4
  -7   7  -6 6.32216 4.33925   1
   7  -7   6 0.55907 2.63176   3
  -8   7  -6 4.50282 4.34890   4
  -8   7  -6 -6.3607 4.82872   1
   8  -7   6 -1.6410 2.67187   3
  -9   7  -6 -4.7383 4.17194   4
  -9   7  -6 -1.4252 6.17620   1
   9  -7   6 7.18134 3.73186   3
 -10   7  -6 0.16409 5.43685   4
 -10   7  -6 7.71009 7.18310   1
  10  -7   6 -7.8300 3.85740   3
   8   6  -6 -3.6544 5.41889   1
   8   6  -6 -1.7831 4.12491   4
  -8  -6   6 2.69193 5.20910   2
   7   6  -6 5.46950 3.24923   4
   7   6  -6 -0.3005 4.59928   1
  -7  -6   6 2.59128 4.86349   2
   6   6  -6 1.49684 3.58490   1
   6   6  -6 2.65333 2.78099   4
  -6  -6   6 4.69249 3.48865   2
   5   6  -6 0.41372 2.31186   4
   5   6  -6 1.98453 3.22264   1
  -5  -6   6 1.95111 3.11316   2
   4   6  -6 -1.3727 3.15144   1
   4   6  -6 1.96762 2.22778   4
  -4  -6   6 -1.7374 2.89640   2
  -4  -6   6 -0.1190 1.56103   3
   3   6  -6 10.4356 2.02379   4
   3   6  -6 16.4425 3.16824   1
  -3  -6   6 8.31704 1.68067   3
  -3  -6   6 5.14483 2.70618   2
   2   6  -6 38.3920 3.92984   1
   2   6  -6 36.0108 2.82722   4
  -2  -6   6 41.7558 2.57631   3
  -2  -6   6 37.5770 5.16846   2
   1   6  -6 50.9159 3.73750   1
   1   6  -6 51.9715 3.13096   4
  -1  -6   6 61.1194 2.95909   3
  -1  -6   6 56.1572 3.88270   2
   0   6  -6 20.2315 2.50788   4
   0   6  -6 24.3289 2.45971   1
   0  -6   6 25.2209 2.48700   2
   0  -6   6 25.4479 2.27950   3
  -1   6  -6 0.78966 1.66375   4
  -1   6  -6 2.88851 1.52659   1
   1  -6   6 3.31673 1.52887   3
   1  -6   6 -1.4206 1.42026   2
  -2   6  -6 25.7063 2.91655   4
   2  -6   6 21.8662 2.43395   3
   2  -6   6 20.4178 2.36636   2
  -3   6  -6 34.3442 2.99431   1
  -3   6  -6 37.5116 3.29423   4
   3  -6   6 37.6462 2.55437   2
   3  -6   6 33.9513 3.18780   3
  -4   6  -6 26.4179 2.89364   1
  -4   6  -6 29.3535 3.83779   4
   4  -6   6 25.4317 2.32740   2
   4  -6   6 24.2303 2.74889   3
  -5   6  -6 11.9406 2.66558   1
  -5   6  -6 5.52790 2.83817   4
   5  -6   6 12.5795 1.82375   2
   5  -6   6 9.47827 2.34773   3
  -6   6  -6 -1.7027 3.02406   4
  -6   6  -6 3.06639 3.19189   1
   6  -6   6 2.34406 2.37047   3
   6  -6   6 0.45871 1.45910   2
  -7   6  -6 -5.8496 3.91121   4
   7  -6   6 4.03691 2.41469   3
  -8   6  -6 -2.7486 3.40637   4
  -8   6  -6 -3.6264 4.42204   1
   8  -6   6 -1.4861 2.91456   3
  -9   6  -6 3.41220 5.01430   4
  -9   6  -6 4.21859 5.75780   1
   9  -6   6 -2.9002 2.98270   3
 -10   6  -6 6.17902 6.34950   1
  10  -6   6 1.28892 4.12285   3
   9   5  -6 -0.9188 4.44259   4
   9   5  -6 -6.5414 5.30778   1
  -9  -5   6 26.8974 6.80100   2
   8   5  -6 -4.5735 4.70311   1
   8   5  -6 -0.5096 3.45764   4
  -8  -5   6 7.79511 5.22940   2
   7   5  -6 8.85956 2.93891   4
   7   5  -6 3.35778 3.96540   1
  -7  -5   6 11.5308 4.37067   2
   6   5  -6 15.2275 3.44571   4
   6   5  -6 15.0151 4.17857   1
  -6  -5   6 19.6606 4.07336   2
   5   5  -6 2.42103 3.07382   1
   5   5  -6 2.39017 3.55140   4
  -5  -5   6 -0.0725 2.52772   2
  -5  -5   6 1.04139 1.78959   3
   4   5  -6 -1.9257 2.36299   1
   4   5  -6 0.07351 1.47770   4
  -4  -5   6 2.99011 2.77643   2
  -4  -5   6 -2.0945 1.47228   3
   3   5  -6 50.0832 4.15315   1
   3   5  -6 55.6281 2.97197   4
  -3  -5   6 60.3061 2.92158   3
  -3  -5   6 57.2038 4.30268   2
   2   5  -6 96.3985 3.92503   4
   2   5  -6 95.0233 4.76482   1
  -2  -5   6 103.052 3.77720   3
   1   5  -6 129.019 5.35843   1
   1   5  -6 123.124 4.69610   4
  -1  -5   6 130.047 4.45462   3
  -1  -5   6 120.902 5.10221   2
   0   5  -6 49.4047 2.92643   4
   0   5  -6 49.2960 3.02837   1
   0  -5   6 47.6578 2.61408   3
   0  -5   6 48.0748 2.93784   2
  -1   5  -6 4.22515 1.82178   4
  -1   5  -6 2.77522 1.44432   1
   1  -5   6 4.29678 1.57712   2
   1  -5   6 5.77788 1.29910   3
  -2   5  -6 18.6164 2.10070   1
  -2   5  -6 17.7061 2.36918   4
   2  -5   6 15.6002 1.93040   3
   2  -5   6 20.8975 2.01207   2
  -3   5  -6 58.2942 3.35095   1
  -3   5  -6 56.3236 3.65557   4
   3  -5   6 49.3055 2.78518   3
   3  -5   6 55.9966 2.66476   2
  -4   5  -6 52.3401 3.30605   1
  -4   5  -6 48.7310 3.73510   4
  -4   5  -6 43.9632 2.70625   2
   4  -5   6 53.6193 3.46530   3
   4  -5   6 49.2384 2.42236   2
  -5   5  -6 5.20223 3.08047   4
  -5   5  -6 14.8283 2.95132   1
   5  -5   6 8.76960 2.42259   3
  -6   5  -6 -0.1683 3.21208   1
  -6   5  -6 2.09052 3.21337   4
   6  -5   6 -0.6380 2.18866   3
  -7   5  -6 -0.4154 3.14111   4
  -7   5  -6 -2.4467 3.51865   1
   7  -5   6 -0.9150 2.39240   3
  -8   5  -6 5.42928 4.42245   4
  -8   5  -6 7.19998 4.55743   1
   8  -5   6 2.52493 3.06739   3
  -9   5  -6 -1.8056 5.13545   1
  -9   5  -6 -4.2289 4.56050   4
   9  -5   6 2.63535 3.42083   3
 -10   5  -6 0.05264 6.63320   1
  10  -5   6 -7.1499 3.98554   3
   9   4  -6 4.50229 3.72030   4
  -9  -4   6 -3.0332 5.02909   2
   8   4  -6 4.44285 4.14847   1
   8   4  -6 2.90642 3.22263   4
  -8  -4   6 8.44476 4.32817   2
   7   4  -6 7.55269 4.29142   1
   7   4  -6 3.40052 3.24880   4
  -7  -4   6 10.2397 3.90535   2
   6   4  -6 20.5848 4.36926   1
  -6  -4   6 24.6740 2.94719   3
  -6  -4   6 29.5555 4.24075   2
   5   4  -6 7.60984 2.93376   1
   5   4  -6 10.1509 1.83991   4
  -5  -4   6 6.35689 2.62649   2
  -5  -4   6 7.23887 1.93490   3
   4   4  -6 20.6966 1.88307   4
   4   4  -6 17.9351 3.34181   1
  -4  -4   6 16.3315 3.33372   2
  -4  -4   6 19.9868 2.20788   3
   3   4  -6 30.7379 3.06523   1
   3   4  -6 35.5986 2.21793   4
  -3  -4   6 36.1501 2.28704   3
   2   4  -6 168.974 6.47699   1
   2   4  -6 161.509 5.34851   4
  -2  -4   6 171.171 5.39532   3
  -2  -4   6 171.749 6.30678   2
   1   4  -6 227.328 7.64863   1
   1   4  -6 227.985 6.93340   4
  -1  -4   6 221.707 7.47909   2
  -1  -4   6 224.012 6.73003   3
   0   4  -6 109.443 4.20783   4
   0   4  -6 107.838 4.44131   1
   0  -4   6 111.076 4.28021   2
   0  -4   6 109.389 3.95216   3
  -1   4  -6 11.2887 1.83229   4
  -1   4  -6 8.89455 1.66858   1
   1  -4   6 8.96269 1.39352   3
   1  -4   6 10.9001 1.71695   2
  -2   4  -6 0.71847 1.19359   1
  -2   4  -6 2.90286 1.58816   4
   2  -4   6 1.96066 1.20940   2
   2  -4   6 4.27223 1.28423   3
  -3   4  -6 70.2715 3.85971   4
  -3   4  -6 68.2141 2.65045   2
  -3   4  -6 74.0618 3.64388   1
   3  -4   6 77.2609 3.50101   3
   3  -4   6 73.7242 2.79574   2
  -4   4  -6 61.8903 3.84998   4
  -4   4  -6 64.9296 3.73391   1
   4  -4   6 50.1939 3.67385   3
  -5   4  -6 25.7568 3.97652   4
  -5   4  -6 27.9323 3.68063   1
   5  -4   6 23.3100 2.85019   3
  -6   4  -6 -2.4006 2.82961   1
  -6   4  -6 0.24200 3.01889   4
   6  -4   6 2.15402 1.98871   3
  -7   4  -6 -1.9468 3.47008   1
  -7   4  -6 -4.0784 3.20964   4
   7  -4   6 1.40673 2.42355   3
  -8   4  -6 7.00976 4.45317   1
  -8   4  -6 -0.5226 3.84552   4
   8  -4   6 -0.3327 2.57615   3
  -9   4  -6 0.50679 5.17242   1
  -9   4  -6 -10.360 3.99356   4
   9  -4   6 -0.3709 3.28853   3
 -10   4  -6 5.07661 6.40848   4
 -10   4  -6 -5.5750 6.82613   1
  10  -4   6 5.87423 4.03266   3
  10   3  -6 5.80131 4.16240   4
  10   3  -6 11.0057 5.92545   1
 -10  -3   6 -0.6736 7.10848   2
   9   3  -6 4.46769 3.28147   4
   9   3  -6 8.43031 4.90418   1
  -9  -3   6 2.36135 4.77719   2
   8   3  -6 8.17571 3.07394   4
   8   3  -6 7.89734 4.03806   1
  -8  -3   6 1.34539 4.45511   2
   7   3  -6 21.4584 4.35106   1
  -7  -3   6 31.9895 4.30725   2
  -7  -3   6 23.0256 3.03100   3
   6   3  -6 40.6228 4.49459   1
   6   3  -6 45.1753 2.78389   4
  -6  -3   6 47.9398 3.57155   3
  -6  -3   6 44.3570 4.61771   2
   5   3  -6 43.2492 2.49207   4
  -5  -3   6 27.6732 5.96533   2
  -5  -3   6 38.4829 2.95366   3
   4   3  -6 15.4546 3.33095   1
   4   3  -6 17.0424 1.66755   4
  -4  -3   6 20.1440 3.64163   2
  -4  -3   6 19.7687 2.06347   3
   3   3  -6 105.431 3.55391   4
   3   3  -6 108.625 4.91867   1
  -3  -3   6 106.232 4.73287   2
  -3  -3   6 101.537 3.87633   3
   2   3  -6 435.890 13.3782   1
   2   3  -6 456.191 12.1132   4
  -2  -3   6 456.383 12.3611   3
  -2  -3   6 458.326 13.2635   2
   1   3  -6 300.083 8.58360   4
   1   3  -6 301.332 9.32727   1
  -1  -3   6 299.420 9.21593   2
  -1  -3   6 311.325 8.68231   3
   0   3  -6 143.855 5.18696   1
   0   3  -6 149.647 4.95907   4
   0  -3   6 153.206 4.89334   3
   0  -3   6 149.014 5.17659   2
  -1   3  -6 22.5223 2.02437   4
  -1   3  -6 21.6462 1.86409   1
   1  -3   6 21.9466 1.56765   3
   1  -3   6 19.0062 1.83699   2
  -2   3  -6 0.19311 0.83486   2
  -2   3  -6 0.68143 1.13010   1
  -2   3  -6 0.03226 1.43724   4
   2  -3   6 -0.1858 0.95894   3
   2  -3   6 0.71422 1.03690   2
  -3   3  -6 105.047 4.39885   1
  -3   3  -6 100.295 4.49339   4
   3  -3   6 106.203 4.16296   3
   3  -3   6 96.5407 3.06127   2
  -4   3  -6 87.8962 4.47293   1
  -4   3  -6 86.1091 4.55564   4
   4  -3   6 87.0212 3.85509   3
  -5   3  -6 30.0964 4.11404   4
  -5   3  -6 41.6930 3.77334   1
   5  -3   6 33.8410 3.10847   3
  -6   3  -6 2.05888 3.01889   1
  -6   3  -6 -1.6296 2.88436   4
   6  -3   6 0.91417 2.00365   3
  -7   3  -6 -2.3961 3.38458   1
  -7   3  -6 0.13080 3.11152   4
   7  -3   6 0.23146 2.43043   3
  -8   3  -6 2.58872 4.28193   1
  -8   3  -6 2.43819 4.15047   4
   8  -3   6 4.57841 3.13084   3
  -9   3  -6 6.35761 4.30513   4
  -9   3  -6 -4.0214 4.80287   1
   9  -3   6 0.13794 3.48922   3
 -10   3  -6 7.98693 6.77563   1
  10  -3   6 5.82286 5.04940   4
  11   2  -6 10.9776 5.96219   1
  11   2  -6 5.00229 4.86070   4
 -11  -2   6 4.62556 6.77671   2
  10   2  -6 5.70021 5.14262   1
  10   2  -6 3.25001 3.84848   4
 -10  -2   6 3.18422 5.96746   2
   9   2  -6 0.76118 3.99464   1
   9   2  -6 -4.7066 3.15205   4
  -9  -2   6 -4.4346 4.10727   2
   8   2  -6 12.2876 4.09183   1
   8   2  -6 11.5231 2.70225   4
  -8  -2   6 11.4724 3.07312   3
  -8  -2   6 10.9379 4.58599   2
   7   2  -6 50.5410 3.11583   4
   7   2  -6 39.4782 4.75351   1
  -7  -2   6 50.1013 4.16222   3
  -7  -2   6 51.2252 4.94403   2
   6   2  -6 76.4865 4.96727   1
   6   2  -6 87.7007 3.56860   4
  -6  -2   6 81.0202 5.39902   2
  -6  -2   6 80.6558 4.19489   3
   5   2  -6 53.3017 2.41607   4
   5   2  -6 49.6490 4.05196   1
  -5  -2   6 55.1726 3.23219   3
  -5  -2   6 52.1994 3.66560   2
   4   2  -6 0.62464 1.65176   1
   4   2  -6 0.99522 0.83931   4
  -4  -2   6 -0.8054 1.45685   2
  -4  -2   6 1.47986 1.30415   3
   3   2  -6 57.8515 2.10158   4
   3   2  -6 53.9897 3.10580   1
  -3  -2   6 53.7336 2.41561   4
  -3  -2   6 58.5451 3.34454   2
  -3  -2   6 52.9888 2.65522   3
   2   2  -6 145.763 4.19367   4
   2   2  -6 147.055 5.35733   1
  -2  -2   6 137.009 4.65647   3
  -2  -2   6 130.132 3.99119   4
  -2  -2   6 138.262 5.21806   2
   1   2  -6 403.297 11.4275   1
   1   2  -6 402.599 10.5479   4
  -1  -2   6 391.511 11.3279   2
  -1  -2   6 367.039 10.1994   4
  -1  -2   6 394.398 10.8432   3
   0   2  -6 240.763 6.97982   4
   0   2  -6 231.678 7.35406   1
   0  -2   6 231.581 6.96171   3
   0  -2   6 239.275 7.23643   2
  -1   2  -6 29.3650 2.04489   1
  -1   2  -6 30.8480 2.07945   4
   1  -2   6 30.7637 1.90854   3
   1  -2   6 28.5383 1.85791   2
  -2   2  -6 18.2357 1.13143   2
  -2   2  -6 18.8051 1.82358   1
  -2   2  -6 19.5637 2.14263   4
   2  -2   6 19.5921 1.51651   3
   2  -2   6 20.2490 1.46702   2
  -3   2  -6 76.0083 3.90187   4
  -3   2  -6 81.9080 3.89092   1
   3  -2   6 79.7637 3.43967   3
  -4   2  -6 90.1891 4.52394   1
  -4   2  -6 91.1240 4.75686   4
   4  -2   6 92.2677 3.86742   3
  -5   2  -6 38.2229 4.05588   1
  -5   2  -6 36.3390 4.03396   4
   5  -2   6 28.1800 2.87717   3
  -6   2  -6 1.33747 3.25059   4
  -6   2  -6 4.00605 3.08415   1
   6  -2   6 -1.7378 3.54615   3
  -7   2  -6 1.53946 3.09295   1
  -7   2  -6 2.56017 3.27631   4
   7  -2   6 -4.9087 2.36072   3
  -8   2  -6 -2.9639 3.80501   1
   8  -2   6 5.60653 4.31194   4
   8  -2   6 -4.1894 2.55370   3
  -9   2  -6 -1.8104 5.35026   1
   9  -2   6 2.87153 3.29059   3
   9  -2   6 1.13841 4.44705   4
 -10   2  -6 6.02285 7.73546   1
  10  -2   6 7.79298 4.13283   3
  10  -2   6 4.31975 5.00482   4
  11   1  -6 -4.1279 4.64043   4
  11   1  -6 11.1878 5.54571   1
 -11  -1   6 -9.3264 6.23456   2
  10   1  -6 1.06697 3.96922   4
  10   1  -6 3.34761 4.51317   1
 -10  -1   6 -1.9671 5.19229   2
   9   1  -6 1.83236 3.25854   4
   9   1  -6 6.22481 3.88061   1
  -9  -1   6 2.69674 4.26418   2
  -9  -1   6 6.19127 3.40257   3
   8   1  -6 15.2648 2.55248   4
   8   1  -6 9.97487 3.64505   1
  -8  -1   6 10.1984 3.59896   2
  -8  -1   6 5.37920 3.00029   3
   7   1  -6 62.5180 3.34995   4
   7   1  -6 54.4470 5.00739   1
  -7  -1   6 62.8979 4.34098   3
  -7  -1   6 63.9159 5.17053   2
   6   1  -6 145.902 4.95052   4
   6   1  -6 145.952 6.80558   1
  -6  -1   6 147.102 7.03791   2
  -6  -1   6 150.694 5.86653   3
   5   1  -6 72.0148 4.08038   1
   5   1  -6 70.2217 2.63584   4
  -5  -1   6 67.0134 4.14954   2
  -5  -1   6 71.5718 3.55886   3
   4   1  -6 22.6944 2.13091   1
   4   1  -6 23.6336 1.90805   4
   4   1  -6 30.0980 1.33839   4
  -4  -1   6 27.1159 2.23367   3
  -4  -1   6 30.7946 2.60166   2
   3   1  -6 31.9552 2.37012   1
   3   1  -6 31.4922 1.28549   4
  -3  -1   6 29.7599 1.97695   3
  -3  -1   6 29.5110 2.52530   2
  -3  -1   6 32.1580 1.51084   4
   2   1  -6 309.039 8.06537   4
   2   1  -6 300.450 9.32907   1
  -2  -1   6 323.395 9.53491   2
  -2  -1   6 307.821 8.91464   3
  -2  -1   6 309.479 7.92835   4
   1   1  -6 646.222 17.6081   1
   1   1  -6 620.699 16.8632   4
  -1  -1   6 678.331 17.3114   3
  -1  -1   6 655.876 17.6029   2
  -1  -1   6 643.747 16.4767   4
   0   1  -6 386.122 10.8986   1
   0   1  -6 385.618 10.3678   4
   0  -1   6 360.309 10.5895   4
   0  -1   6 391.126 10.6667   2
   0  -1   6 368.179 10.4935   3
  -1   1  -6 24.4395 1.66333   2
  -1   1  -6 25.2509 1.99565   4
  -1   1  -6 24.6200 1.93091   1
   1  -1   6 22.6834 1.59722   3
   1  -1   6 23.4776 1.66582   2
  -2   1  -6 8.07989 0.95159   2
  -2   1  -6 5.97821 1.54304   4
  -2   1  -6 6.18976 0.89120   2
  -2   1  -6 8.93777 1.63813   1
   2  -1   6 4.83246 1.03199   3
  -3   1  -6 43.4868 2.99744   1
  -3   1  -6 39.0697 2.85268   4
   3  -1   6 36.1250 2.21387   3
  -4   1  -6 81.3482 4.44803   4
   4  -1   6 83.4450 3.60662   3
  -5   1  -6 25.2731 3.53100   4
  -6   1  -6 0.33172 3.16872   1
   6  -1   6 7.14337 1.92261   3
   6  -1   6 6.91910 3.40921   4
  -7   1  -6 1.21180 4.41206   1
   7  -1   6 2.08688 2.45187   3
   7  -1   6 -9.0099 3.18560   4
  -8   1  -6 3.52751 4.68815   1
   8  -1   6 -0.6771 2.78624   3
   8  -1   6 4.30174 3.71169   4
  -9   1  -6 -2.3262 5.60479   1
   9  -1   6 -0.8707 4.28969   4
   9  -1   6 -8.6336 3.53485   3
 -10   1  -6 10.6832 6.99429   1
  10  -1   6 -3.1106 5.10916   4
  10  -1   6 -7.9721 4.31927   3
  11   0  -6 17.8722 5.83684   1
  11   0  -6 4.94841 4.65962   4
 -11   0   6 3.11798 6.03605   2
  10   0  -6 8.01321 3.71201   4
  10   0  -6 10.2582 4.47235   1
 -10   0   6 8.27761 4.70074   2
 -10   0   6 6.53885 4.48470   3
   9   0  -6 4.24868 2.76154   4
   9   0  -6 6.58855 3.96200   1
  -9   0   6 0.84984 3.32782   3
   8   0  -6 8.70889 3.36553   1
   8   0  -6 15.6397 2.57938   4
  -8   0   6 12.7937 3.98180   2
  -8   0   6 11.1111 3.16747   3
   7   0  -6 85.2424 3.76983   4
  -7   0   6 81.1104 5.44090   2
  -7   0   6 89.8083 4.82917   3
   6   0  -6 154.345 4.95450   4
  -6   0   6 154.552 6.02091   3
  -6   0   6 148.006 6.62847   2
   5   0  -6 123.655 3.75772   4
   5   0  -6 118.391 5.18440   1
  -5   0   6 116.979 4.87310   3
  -5   0   6 120.969 5.29671   2
   4   0  -6 7.50658 1.08719   4
   4   0  -6 6.19487 1.61741   1
   4   0  -6 5.64586 0.64498   4
  -4   0   6 7.96694 1.86115   2
  -4   0   6 5.58394 1.40828   3
   3   0  -6 6.06772 1.28109   1
  -3   0   6 8.50575 1.68199   2
  -3   0   6 6.77190 1.27205   3
   2   0  -6 545.998 15.3045   1
  -2   0   6 562.926 15.5576   2
  -2   0   6 560.390 15.1485   3
   1   0  -6 523.813 14.3776   1
  -1   0   6 518.574 13.4474   4
  -1   0   6 519.679 14.1763   3
  -1   0   6 525.045 14.4266   2
   0   0  -6 609.773 17.3009   1
   0   0   6 654.055 16.8497   4
   0   0   6 641.266 17.0566   2
   0   0   6 661.060 17.1358   3
  -1   0  -6 48.4047 2.17695   2
  -1   0  -6 48.8330 2.65233   1
  -1   0  -6 49.0834 2.46241   4
  -1   0  -6 44.0967 2.33006   2
   1   0   6 47.4718 2.52408   4
   1   0   6 47.5877 2.23860   3
  -2   0  -6 5.81847 1.54653   1
  -2   0  -6 8.49417 0.96329   2
  -2   0  -6 9.97050 1.35547   2
   2   0   6 5.12074 1.61626   4
   2   0   6 4.92865 1.04808   3
  -4   0  -6 90.2193 5.11769   1
   4   0   6 89.0899 6.42367   4
   4   0   6 81.4020 3.66830   3
  -5   0  -6 13.5409 3.30599   1
   5   0   6 13.3499 3.15958   4
   5   0   6 16.2765 2.16846   3
  -6   0  -6 8.58868 3.63973   1
   6   0   6 10.4572 3.45973   4
   6   0   6 4.11642 2.28906   3
  -7   0  -6 -4.5997 3.68742   1
   7   0   6 -5.4796 3.14755   4
   7   0   6 -2.3075 2.61697   3
  -8   0  -6 0.08673 4.54072   1
   8   0   6 -1.0592 3.88967   4
   8   0   6 -0.3882 2.99617   3
   9   0   6 9.57016 3.71804   3
  12  -1  -6 0.15201 6.18751   1
  12  -1  -6 1.47918 5.09194   4
 -12   1   6 -15.949 6.46631   2
  11  -1  -6 2.45812 4.08526   4
  11  -1  -6 15.3890 5.49831   1
 -11   1   6 1.23477 5.08545   3
 -11   1   6 3.45269 5.12502   2
  10  -1  -6 15.1778 4.72658   1
  10  -1  -6 9.15382 4.23417   4
 -10   1   6 3.64837 4.72213   2
 -10   1   6 7.44444 9.63939   3
   9  -1  -6 0.28093 3.81775   1
   9  -1  -6 1.09020 2.37781   4
  -9   1   6 0.27527 3.45885   2
  -9   1   6 5.04471 4.15347   3
   8  -1  -6 16.0644 3.80423   1
   8  -1  -6 10.2835 2.27140   4
  -8   1   6 11.1329 3.39660   3
  -8   1   6 15.2883 3.70115   2
   7  -1  -6 80.5679 4.84024   1
   7  -1  -6 80.7485 3.72661   4
  -7   1   6 80.5885 5.71834   2
  -7   1   6 84.1628 4.79197   3
   6  -1  -6 221.697 6.74209   4
   6  -1  -6 237.512 8.27145   1
  -6   1   6 219.457 7.90000   3
   5  -1  -6 265.273 7.25312   4
   5  -1  -6 252.048 7.32309   4
   5  -1  -6 265.842 8.82443   1
  -5   1   6 266.769 9.06602   2
  -5   1   6 271.209 8.64641   3
   4  -1  -6 31.2813 2.34396   1
  -4   1   6 33.7062 2.65043   2
  -4   1   6 32.9750 2.36476   3
   3  -1  -6 34.6030 2.20929   1
  -3   1   6 38.6998 2.34363   3
  -3   1   6 38.2491 2.43603   2
   2  -1  -6 622.038 17.0040   1
  -2   1   6 629.390 17.0958   3
  -2   1   6 644.924 17.4284   2
   1  -1  -6 753.757 20.2560   2
   1  -1  -6 755.378 20.0637   1
  -1   1   6 765.076 19.2063   4
  -1   1   6 765.556 20.0449   3
  -1   1   6 732.472 19.3867   4
   0  -1  -6 362.874 10.4273   1
   0  -1  -6 353.943 10.1592   2
   0   1   6 356.312 9.87193   4
   0   1   6 363.089 10.1953   3
  -1  -1  -6 41.4475 2.43492   1
  -1  -1  -6 34.5007 1.94735   2
   1   1   6 39.7145 2.06423   3
   1   1   6 34.9867 2.21946   4
  -2  -1  -6 0.43970 0.83400   2
  -2  -1  -6 -0.6991 1.41410   1
   2   1   6 0.25900 1.00938   3
   2   1   6 -0.8471 1.35106   4
  -3  -1  -6 0.45186 0.90729   2
  -3  -1  -6 -0.3647 1.90147   1
   3   1   6 2.05223 1.77199   4
   3   1   6 -0.5796 1.18237   3
  -4  -1  -6 69.5928 2.92003   2
  -4  -1  -6 77.6406 5.05444   1
   4   1   6 76.9283 4.54253   4
   4   1   6 79.6936 3.54302   3
  -5  -1  -6 12.1890 1.90209   2
  -5  -1  -6 9.13323 3.30694   1
   5   1   6 4.83299 3.03350   4
   5   1   6 9.57059 1.83954   3
  -6  -1  -6 1.41624 3.45668   1
   6   1   6 3.66948 3.07671   4
   6   1   6 0.85499 2.20280   3
  -7  -1  -6 3.09338 4.28447   1
   7   1   6 -0.1237 2.80753   3
   7   1   6 -2.8636 3.16854   4
  -8  -1  -6 4.32393 5.32856   1
   8   1   6 -2.2565 3.79406   4
   8   1   6 1.29301 3.33843   3
  -9  -1  -6 14.2156 6.70493   1
   9   1   6 3.09466 4.56300   4
  12  -2  -6 4.81938 6.18205   1
  12  -2  -6 3.82574 4.77952   4
 -12   2   6 2.84854 7.59552   3
 -12   2   6 0.33367 6.53251   2
  11  -2  -6 11.7312 5.64382   1
  11  -2  -6 14.2085 4.33132   4
 -11   2   6 19.7640 5.75393   3
 -11   2   6 9.19649 5.42698   2
  10  -2  -6 -1.9606 4.60592   1
  10  -2  -6 11.6455 3.88548   4
 -10   2   6 4.64375 4.20346   2
 -10   2   6 11.4329 5.00532   3
   9  -2  -6 -4.5768 3.18325   1
   9  -2  -6 -1.5405 2.67908   4
  -9   2   6 -1.9644 3.58883   3
  -9   2   6 -3.1664 3.34960   2
   8  -2  -6 24.5734 3.07309   4
   8  -2  -6 21.9714 3.74117   1
  -8   2   6 23.6540 4.18739   3
  -8   2   6 21.8700 4.13358   2
   7  -2  -6 138.500 5.13839   4
   7  -2  -6 146.843 6.21342   1
  -7   2   6 145.200 6.54588   3
  -7   2   6 130.707 6.44932   2
   6  -2  -6 387.914 11.8891   1
  -6   2   6 375.899 10.5379   4
  -6   2   6 387.736 11.9710   3
  -6   2   6 364.504 12.9028   2
   5  -2  -6 243.257 6.84874   4
   5  -2  -6 253.618 8.18151   1
  -5   2   6 237.600 6.93116   4
  -5   2   6 263.292 8.78689   2
  -5   2   6 246.172 8.33829   3
   4  -2  -6 93.6423 3.71936   1
   4  -2  -6 86.2850 2.53203   4
  -4   2   6 84.8062 2.75780   4
  -4   2   6 93.6199 4.22257   2
  -4   2   6 88.2921 3.87653   3
   3  -2  -6 15.3944 1.51357   1
   3  -2  -6 14.1781 0.86621   4
  -3   2   6 18.0109 1.89299   2
  -3   2   6 14.8304 0.98658   4
  -3   2   6 17.8809 2.15626   3
   2  -2  -6 226.383 6.37793   4
   2  -2  -6 237.959 7.12426   1
   2  -2  -6 233.474 7.59533   2
  -2   2   6 236.668 6.20989   4
  -2   2   6 231.093 7.32097   3
   1  -2  -6 419.693 12.0039   2
   1  -2  -6 412.618 11.8020   1
  -1   2   6 421.391 11.0907   4
  -1   2   6 423.849 11.8992   3
   0  -2  -6 115.063 4.55909   1
   0  -2  -6 132.528 4.44650   2
   0   2   6 117.870 4.31388   3
   0   2   6 127.007 4.16532   4
  -1  -2  -6 50.9528 3.01074   1
  -1  -2  -6 51.9721 2.39044   2
   1   2   6 54.6976 2.67952   4
   1   2   6 48.3288 2.62078   3
  -2  -2  -6 8.41904 1.95942   1
  -2  -2  -6 6.99681 1.23782   2
   2   2   6 6.61962 1.43155   3
   2   2   6 4.34461 1.64120   4
  -3  -2  -6 7.82367 2.92795   1
  -3  -2  -6 6.87692 1.37486   2
   3   2   6 6.97591 1.98818   4
   3   2   6 12.1400 1.71822   3
  -4  -2  -6 33.0295 4.37062   1
  -4  -2  -6 30.5242 2.38070   2
   4   2   6 29.8544 2.65954   3
   4   2   6 29.6019 4.03700   4
  -5  -2  -6 11.9724 3.81967   1
  -5  -2  -6 7.18154 2.19591   2
   5   2   6 7.04425 2.07106   3
   5   2   6 8.44722 2.96793   4
  -6  -2  -6 4.69660 4.06202   1
  -6  -2  -6 2.70571 2.72142   2
   6   2   6 1.48124 3.30030   4
  -7  -2  -6 -3.8522 4.75721   1
   7   2   6 0.57389 3.65633   4
   7   2   6 -1.3829 3.01419   3
  -8  -2  -6 -9.7590 6.71138   1
   8   2   6 1.55313 4.23639   4
   9   2   6 5.33381 5.05032   4
  12  -3  -6 -5.9018 5.35014   4
  12  -3  -6 2.55838 5.31924   1
 -12   3   6 1.68513 6.63541   3
 -12   3   6 5.24666 6.24096   2
  11  -3  -6 8.49769 4.97112   1
  11  -3  -6 18.0003 4.82205   4
 -11   3   6 16.6066 5.91292   3
 -11   3   6 15.5892 5.31342   2
  10  -3  -6 21.5712 4.29688   1
  10  -3  -6 17.2533 4.27078   4
 -10   3   6 26.4502 5.33909   3
 -10   3   6 22.2918 5.06100   2
   9  -3  -6 -0.3813 2.52973   4
   9  -3  -6 -1.8771 2.84801   1
  -9   3   6 1.37640 3.76669   3
  -9   3   6 1.78828 3.72712   2
  -8   3   6 23.7520 3.27407   4
  -8   3   6 21.7435 4.20872   3
  -8   3   6 20.7958 3.80081   2
   7  -3  -6 98.6438 4.66803   1
  -7   3   6 96.9802 4.25898   4
  -7   3   6 93.5611 5.57526   2
  -7   3   6 78.9183 8.54395   3
   6  -3  -6 133.004 5.27607   1
  -6   3   6 126.306 6.82880   2
  -6   3   6 133.528 5.74039   3
  -6   3   6 132.171 4.66622   4
   5  -3  -6 264.601 8.19119   1
  -5   3   6 252.888 7.50770   4
  -5   3   6 265.227 8.83601   3
  -5   3   6 265.939 8.95205   2
   4  -3  -6 135.546 4.74054   1
   4  -3  -6 129.030 3.83729   4
   4  -3  -6 138.198 5.57962   2
  -4   3   6 130.264 4.14102   4
  -4   3   6 132.173 5.29016   3
   3  -3  -6 10.8963 1.11528   4
   3  -3  -6 13.8748 1.70561   1
   3  -3  -6 13.7374 2.03392   2
  -3   3   6 14.6467 1.80344   3
  -3   3   6 11.0783 1.16556   4
   2  -3  -6 93.5672 3.72604   1
   2  -3  -6 100.306 4.22663   2
  -2   3   6 93.4886 3.92925   3
  -2   3   6 93.4653 3.06530   4
   1  -3  -6 301.531 8.91993   1
   1  -3  -6 291.841 8.96137   2
  -1   3   6 291.901 8.19242   4
  -1   3   6 293.138 8.85918   3
   0  -3  -6 130.114 4.71804   2
   0  -3  -6 135.308 5.16831   1
   0   3   6 137.569 4.87320   3
   0   3   6 136.584 4.57025   4
  -1  -3  -6 56.4846 3.42440   1
  -1  -3  -6 59.1021 2.75715   2
   1   3   6 53.4359 2.84383   4
   1   3   6 57.5020 2.91488   3
  -2  -3  -6 0.49908 1.98845   1
  -2  -3  -6 0.78704 1.15421   2
   2   3   6 4.80155 1.78668   4
   2   3   6 1.10079 1.29607   3
  -3  -3  -6 15.3075 3.57109   1
  -3  -3  -6 12.7390 1.83360   2
   3   3   6 15.4925 2.04641   3
  -4  -3  -6 6.52325 3.43595   1
  -4  -3  -6 5.58910 2.03353   2
   4   3   6 7.10904 2.92917   4
   4   3   6 10.0377 2.13691   3
  -5  -3  -6 5.07404 2.72536   2
  -5  -3  -6 1.04289 3.87110   1
   5   3   6 5.41378 2.44963   3
   5   3   6 8.41133 3.16889   4
  -6  -3  -6 -1.5538 3.35409   2
  -6  -3  -6 -0.6673 4.62410   1
   6   3   6 6.13620 3.29196   4
   6   3   6 0.93940 2.83521   3
  -7  -3  -6 0.09237 5.82609   1
   7   3   6 1.04389 3.33849   4
  -8  -3  -6 0.54697 6.65136   1
   8   3   6 -1.9201 4.57725   4
  12  -4  -6 4.20584 5.09886   4
  12  -4  -6 6.44323 5.34752   1
 -12   4   6 11.8900 5.96633   2
 -12   4   6 6.62016 6.98988   3
  11  -4  -6 24.6999 4.75753   1
  11  -4  -6 27.6727 5.08510   4
 -11   4   6 21.9526 5.53860   2
 -11   4   6 13.7009 6.41064   3
  10  -4  -6 33.4067 4.91680   1
 -10   4   6 34.4864 6.05621   3
 -10   4   6 33.1867 4.93806   4
 -10   4   6 31.8633 5.37222   2
   9  -4  -6 1.67797 3.03672   1
  -9   4   6 4.11732 3.37074   2
  -9   4   6 9.80171 4.17976   3
  -9   4   6 3.55055 2.95328   4
   8  -4  -6 28.4613 3.36675   1
  -8   4   6 23.3479 4.26059   3
  -8   4   6 28.4186 3.61889   4
  -8   4   6 31.4960 4.38224   2
   7  -4  -6 17.2576 3.91608   2
   7  -4  -6 17.2465 2.33166   1
  -7   4   6 11.9166 3.56049   3
  -7   4   6 14.5735 2.42176   4
   6  -4  -6 219.032 7.17423   1
   6  -4  -6 207.527 8.50215   2
  -6   4   6 221.181 6.97570   4
   5  -4  -6 328.921 9.51459   1
   5  -4  -6 329.599 10.7352   2
  -5   4   6 322.511 9.34820   4
  -5   4   6 321.134 10.6440   3
   4  -4  -6 123.032 5.25078   2
   4  -4  -6 118.197 4.24529   1
  -4   4   6 115.993 5.09993   3
  -4   4   6 118.253 4.03501   4
   3  -4  -6 2.59166 1.37289   2
   3  -4  -6 3.00385 1.24959   1
  -3   4   6 3.99798 1.33459   3
  -3   4   6 6.01093 1.17114   4
   2  -4  -6 175.949 6.30757   2
   2  -4  -6 176.461 5.86048   1
  -2   4   6 180.614 5.39244   4
  -2   4   6 180.943 6.34363   3
   1  -4  -6 125.246 4.78475   2
   1  -4  -6 115.279 4.62062   1
  -1   4   6 119.762 4.12782   4
  -1   4   6 117.291 4.71388   3
   0  -4  -6 99.0623 4.48750   1
   0  -4  -6 91.4064 3.89852   2
   0   4   6 95.0052 4.07988   3
   0   4   6 88.9783 3.65247   4
  -1  -4  -6 35.9898 2.35416   2
  -1  -4  -6 33.9489 3.23317   1
   1   4   6 34.5810 2.44913   4
   1   4   6 33.2721 2.43097   3
  -2  -4  -6 1.58766 1.40110   2
  -2  -4  -6 0.75782 2.47485   1
   2   4   6 2.61040 1.88143   4
   2   4   6 0.78437 1.57265   3
  -3  -4  -6 1.29312 1.77412   2
  -3  -4  -6 2.24314 2.98164   1
   3   4   6 -1.7237 1.97535   4
   3   4   6 0.59236 1.92975   3
  -4  -4  -6 2.83198 3.75748   1
  -4  -4  -6 5.07284 2.34097   2
   4   4   6 6.54747 2.47281   3
   4   4   6 6.59829 2.76416   4
  -5  -4  -6 2.59456 4.33400   1
  -5  -4  -6 1.89488 2.87908   2
   5   4   6 6.72727 2.68201   3
   5   4   6 7.95932 3.33552   4
  -6  -4  -6 0.96005 5.81020   1
   6   4   6 -0.6267 3.11573   4
   7   4   6 2.42449 6.34890   4
  12  -5  -6 20.5602 6.57462   2
  12  -5  -6 -2.9912 5.26091   1
 -12   5   6 -3.4297 7.57522   3
  11  -5  -6 16.2102 5.70206   2
  11  -5  -6 16.1189 4.69411   1
 -11   5   6 17.4180 6.48470   3
 -11   5   6 23.7763 5.62515   4
  10  -5  -6 24.0095 5.99698   1
  10  -5  -6 24.4499 5.03034   2
 -10   5   6 14.6810 4.54421   4
 -10   5   6 22.7522 5.32356   3
   9  -5  -6 12.3108 3.36547   1
   9  -5  -6 19.4921 4.38651   2
  -9   5   6 25.0669 4.74366   3
  -9   5   6 20.3733 3.78450   4
   8  -5  -6 37.3232 3.45539   1
   8  -5  -6 34.3838 4.40200   2
  -8   5   6 35.2974 4.88568   3
  -8   5   6 40.5687 4.04522   4
   7  -5  -6 2.36282 1.82724   1
   7  -5  -6 -1.9456 3.35730   2
  -7   5   6 -3.3644 4.77367   3
  -7   5   6 2.75926 2.34159   4
   6  -5  -6 276.303 10.0216   2
   6  -5  -6 280.000 8.46307   1
  -6   5   6 288.584 8.84301   4
  -6   5   6 274.626 10.0878   3
   5  -5  -6 165.072 5.35499   1
  -5   5   6 163.886 5.64169   4
   4  -5  -6 118.542 4.13904   1
   4  -5  -6 109.290 5.05645   2
  -4   5   6 117.668 4.31817   4
  -4   5   6 121.464 5.16219   3
   3  -5  -6 6.91906 1.56767   1
   3  -5  -6 5.09664 1.87145   2
  -3   5   6 10.2332 2.02261   3
  -3   5   6 8.92905 1.48276   4
   2  -5  -6 134.653 5.33405   2
   2  -5  -6 135.278 5.02807   1
  -2   5   6 140.490 5.51949   3
  -2   5   6 134.537 4.61714   4
   1  -5  -6 18.4628 2.48449   1
   1  -5  -6 17.4047 2.17186   2
  -1   5   6 16.2562 1.77323   4
  -1   5   6 19.9439 2.49529   3
   0  -5  -6 90.7945 4.71061   1
   0  -5  -6 85.4947 3.93364   2
   0   5   6 90.0992 4.28457   3
   0   5   6 91.3766 3.80609   4
  -1  -5  -6 25.9661 3.24112   1
  -1  -5  -6 21.6763 2.34497   2
   1   5   6 20.2089 2.60664   3
   1   5   6 24.6127 2.88340   4
  -2  -5  -6 0.18423 1.79304   2
  -2  -5  -6 4.59606 3.58302   1
   2   5   6 2.98547 2.03164   4
   2   5   6 -1.1985 2.00234   3
  -3  -5  -6 -2.5042 1.97067   2
  -3  -5  -6 -4.8782 3.28255   1
   3   5   6 1.70841 2.21609   3
   3   5   6 1.34815 2.51574   4
  -4  -5  -6 4.00607 2.71803   2
  -4  -5  -6 5.76648 4.38354   1
   4   5   6 -0.4171 2.84533   4
   4   5   6 1.33146 2.59722   3
  -5  -5  -6 7.33196 5.54489   1
  -5  -5  -6 4.02897 4.10936   2
   5   5   6 0.86302 3.30095   4
  -6  -5  -6 0.10804 6.17828   1
   6   5   6 -0.4873 3.55354   4
  -7  -5  -6 -4.4355 7.52773   1
   7   5   6 1.47782 3.89465   4
  12  -6  -6 3.93637 4.70744   1
  12  -6  -6 4.30592 5.35305   2
 -12   6   6 6.15619 7.64563   3
 -12   6   6 -5.0162 5.67544   4
  11  -6  -6 8.25076 4.55561   2
  11  -6  -6 17.9094 4.37713   1
 -11   6   6 10.2858 6.13787   3
 -11   6   6 1.73753 5.45575   4
  10  -6  -6 11.8440 4.44363   2
 -10   6   6 24.5014 5.07393   4
 -10   6   6 15.9062 5.47767   3
   9  -6  -6 3.73312 2.44955   1
   9  -6  -6 4.58962 3.57897   2
  -9   6   6 -0.2458 3.64270   4
  -9   6   6 7.48369 4.30210   3
   8  -6  -6 1.98748 1.95909   1
   8  -6  -6 -2.3881 2.67863   2
  -8   6   6 1.95595 3.02941   3
  -8   6   6 -0.6561 2.79371   4
   7  -6  -6 7.85014 2.79692   2
   7  -6  -6 9.29045 1.89989   1
  -7   6   6 4.58102 3.15726   3
  -7   6   6 8.93076 2.70609   4
   6  -6  -6 192.829 11.3857   2
   6  -6  -6 180.333 5.88707   1
  -6   6   6 179.031 6.61329   4
   5  -6  -6 192.112 7.65691   2
   5  -6  -6 199.666 6.14905   1
  -5   6   6 202.344 8.10020   3
  -5   6   6 199.813 6.76579   4
   4  -6  -6 40.5723 2.49269   1
   4  -6  -6 41.5947 3.34553   2
  -4   6   6 44.2448 2.74270   4
   3  -6  -6 0.11679 1.54800   1
  -3   6   6 -0.7520 1.62825   3
  -3   6   6 8.70236 1.87464   4
   2  -6  -6 30.2767 2.79103   1
  -2   6   6 30.1788 2.27879   4
  -2   6   6 33.0711 3.10594   3
   1  -6  -6 16.9453 2.76695   1
  -1   6   6 15.5913 2.23443   4
  -1   6   6 12.2825 2.30050   3
   0  -6  -6 65.1780 4.22409   1
   0  -6  -6 53.2889 4.18047   2
   0   6   6 61.2291 3.92546   3
   0   6   6 64.2491 3.63570   4
  -1  -6  -6 18.4893 4.00165   1
  -1  -6  -6 14.7914 2.46548   2
   1   6   6 14.7868 2.61193   4
   1   6   6 14.5839 2.62079   3
  -2  -6  -6 -0.3061 2.33171   2
  -2  -6  -6 -0.9047 3.50710   1
   2   6   6 2.03242 2.67038   3
   2   6   6 2.86719 2.23613   4
  -3  -6  -6 0.28195 4.84907   1
  -3  -6  -6 -1.7485 2.98673   2
   3   6   6 4.51095 2.84845   4
   3   6   6 2.33281 2.94962   3
  -4  -6  -6 6.25163 3.22167   2
  -4  -6  -6 7.01319 5.35259   1
   4   6   6 -1.5276 2.87390   4
  -5  -6  -6 8.50374 6.60883   1
  -5  -6  -6 -2.4232 4.39128   2
   5   6   6 5.21812 3.21433   4
  -6  -6  -6 -6.0094 7.98217   1
   6   6   6 1.99560 3.67075   4
  12  -7  -6 -1.3575 5.53823   2
 -12   7   6 2.94002 7.66196   3
 -12   7   6 -8.8437 6.40462   4
  11  -7  -6 6.05179 4.62668   2
 -11   7   6 5.72104 6.16024   3
 -11   7   6 8.32816 5.90641   4
  10  -7  -6 10.1152 3.16317   1
  10  -7  -6 10.1324 4.14553   2
 -10   7   6 17.5670 5.49941   3
 -10   7   6 27.2482 5.28050   4
   9  -7  -6 8.63336 2.46709   1
   9  -7  -6 3.47570 3.16110   2
  -9   7   6 0.42152 3.49291   3
  -9   7   6 6.41855 4.02510   4
   8  -7  -6 6.65535 2.00659   1
   8  -7  -6 8.73298 3.45346   2
  -8   7   6 7.98042 3.15862   4
  -8   7   6 8.11961 3.64040   3
   7  -7  -6 17.1398 3.41389   2
   7  -7  -6 18.5230 2.41449   1
  -7   7   6 16.6029 3.74521   3
  -7   7   6 18.7802 3.23933   4
   6  -7  -6 78.7150 5.13019   2
   6  -7  -6 62.1833 3.00666   1
  -6   7   6 60.7036 5.35996   3
  -6   7   6 71.8133 4.26452   4
   5  -7  -6 55.6645 2.90686   1
   5  -7  -6 62.1652 4.26889   2
  -5   7   6 63.9946 3.76861   4
   4  -7  -6 17.0559 2.19374   1
  -4   7   6 13.0993 3.17663   3
  -4   7   6 18.8520 2.49753   4
   3  -7  -6 2.18604 1.95102   1
   3  -7  -6 -0.4717 2.07806   2
  -3   7   6 0.49873 1.77019   4
  -3   7   6 2.75914 2.70080   3
   2  -7  -6 -5.2564 2.10640   1
   2  -7  -6 1.84916 2.33485   2
   1  -7  -6 17.8680 3.08420   1
  -1   7   6 14.8201 2.96518   3
  -1   7   6 20.4751 2.80153   4
   0  -7  -6 23.4183 2.90965   2
   0  -7  -6 24.3192 3.76002   1
   0   7   6 28.6532 3.20209   4
   0   7   6 25.7261 3.76592   3
  -1  -7  -6 5.80561 2.20761   2
   1   7   6 0.51822 2.51509   4
   1   7   6 2.33533 2.96088   3
  -2  -7  -6 -3.0026 4.49950   1
  -2  -7  -6 0.80213 2.61752   2
   2   7   6 1.50394 3.08902   3
   2   7   6 -0.5728 2.74109   4
  -3  -7  -6 1.60194 5.62467   1
  -3  -7  -6 -2.8825 3.12701   2
   3   7   6 0.64435 2.98243   4
  -4  -7  -6 -1.1346 5.93450   1
  -4  -7  -6 6.26546 3.96093   2
   4   7   6 -4.2545 3.11461   4
  -5  -7  -6 -8.9821 7.39774   1
  -5  -7  -6 0.51666 5.12945   2
   5   7   6 2.29752 3.63506   4
  12  -8  -6 -3.4678 5.41843   2
 -12   8   6 3.87421 15.2316   3
 -12   8   6 29.4977 7.77563   4
  11  -8  -6 9.65090 4.46609   2
 -11   8   6 16.4453 5.53843   4
 -11   8   6 1.71078 6.15387   3
  10  -8  -6 9.86412 4.48557   2
 -10   8   6 15.0011 5.47200   3
 -10   8   6 15.6732 5.10762   4
   9  -8  -6 15.8708 3.89836   2
  -9   8   6 15.4835 4.83724   4
  -9   8   6 18.8258 4.50079   3
   8  -8  -6 1.16655 3.34530   2
  -8   8   6 -3.9719 2.80194   3
  -8   8   6 5.00914 3.60649   4
   7  -8  -6 -0.2787 2.49604   2
  -7   8   6 3.37202 3.39375   3
  -7   8   6 11.8934 3.52259   4
   6  -8  -6 18.1143 2.19900   1
   6  -8  -6 21.7002 3.43818   2
  -6   8   6 23.7986 4.02315   3
   5  -8  -6 46.9868 2.84297   1
   5  -8  -6 43.6924 3.99859   2
  -5   8   6 40.4069 5.07950   3
   4  -8  -6 50.6771 3.31532   1
   4  -8  -6 43.7456 4.04125   2
  -4   8   6 53.5376 3.95212   4
  -4   8   6 46.4146 4.82329   3
   3  -8  -6 9.27781 2.49853   1
   3  -8  -6 9.18544 2.57577   2
  -3   8   6 7.17950 2.45878   4
  -3   8   6 8.02691 3.22269   3
   2  -8  -6 -3.0484 2.57405   1
   2  -8  -6 0.17266 2.03939   2
  -2   8   6 -3.2820 3.01455   3
  -2   8   6 0.24474 2.22981   4
   1  -8  -6 6.45026 3.23642   1
   1  -8  -6 3.05490 2.45539   2
  -1   8   6 2.45579 2.16667   4
   0  -8  -6 7.99987 2.70863   2
   0  -8  -6 3.15663 4.09636   1
   0   8   6 4.82231 2.71690   4
   0   8   6 3.19059 3.21940   3
  -1  -8  -6 1.63021 2.81067   2
  -1  -8  -6 11.0221 4.82638   1
   1   8   6 1.10048 3.44849   3
   1   8   6 3.31274 2.79673   4
  -2  -8  -6 -2.1670 3.01468   2
  -2  -8  -6 4.06457 5.81594   1
   2   8   6 -1.4690 2.80988   4
  -3  -8  -6 4.20829 3.64766   2
  -3  -8  -6 -3.4722 6.26536   1
   3   8   6 -5.1670 3.23885   4
  -4  -8  -6 7.76624 8.23855   1
  -4  -8  -6 1.39213 4.74974   2
   4   8   6 -5.3242 3.42525   4
  12  -9  -6 3.13506 6.37696   2
 -12   9   6 -3.1073 6.54118   4
 -12   9   6 -5.1260 8.58294   3
  11  -9  -6 7.93644 4.62390   2
 -11   9   6 -0.5851 6.63060   3
 -11   9   6 9.09775 5.56048   4
  10  -9  -6 9.62641 4.51295   2
 -10   9   6 13.2874 5.26459   4
 -10   9   6 0.63291 5.01479   3
   9  -9  -6 2.41948 4.00449   2
  -9   9   6 5.06625 4.25339   4
  -9   9   6 8.83880 4.39077   3
   8  -9  -6 4.67782 3.32258   2
  -8   9   6 -1.0517 4.00237   4
  -8   9   6 1.35114 4.02580   3
   7  -9  -6 2.32889 2.50794   2
  -7   9   6 7.67688 3.96491   4
  -7   9   6 1.10621 3.51589   3
   6  -9  -6 6.17454 3.22775   2
  -6   9   6 1.93516 3.72370   3
  -6   9   6 9.20986 4.04475   4
   5  -9  -6 42.3515 4.15450   2
  -5   9   6 50.9706 5.24976   3
  -5   9   6 43.1538 4.67944   4
   4  -9  -6 2.64803 2.36402   1
   4  -9  -6 5.52870 2.52235   2
  -4   9   6 2.77829 3.21669   3
  -4   9   6 3.90111 2.88329   4
   3  -9  -6 -0.3606 2.81519   1
   3  -9  -6 -0.2964 2.46796   2
  -3   9   6 7.07743 2.69576   4
  -3   9   6 0.40368 3.45729   3
   2  -9  -6 0.74433 2.51268   2
   2  -9  -6 3.10179 3.46256   1
  -2   9   6 -1.7773 4.19755   3
  -2   9   6 0.43947 2.46594   4
   1  -9  -6 3.12256 4.17926   1
   1  -9  -6 -1.1054 2.44284   2
  -1   9   6 6.05453 3.97948   3
  -1   9   6 -0.4418 2.58052   4
   0  -9  -6 5.86752 5.76264   1
   0  -9  -6 2.98863 2.64105   2
   0   9   6 2.45911 2.75834   4
  -1  -9  -6 5.91783 5.60290   1
  -1  -9  -6 2.95899 3.17062   2
   1   9   6 2.55597 3.07079   4
  -2  -9  -6 -9.7081 3.28255   2
  -2  -9  -6 -11.833 6.32838   1
   2   9   6 -2.1901 3.21312   4
  -3  -9  -6 17.7436 8.19978   1
  -3  -9  -6 -4.1239 4.10519   2
   3   9   6 -2.1809 3.71410   4
  12 -10  -6 6.42379 5.90248   2
 -12  10   6 -7.6415 6.94759   4
  11 -10  -6 13.6534 5.35767   2
 -11  10   6 0.74819 6.23408   3
 -11  10   6 0.88408 6.33841   4
  10 -10  -6 6.78288 4.11542   2
 -10  10   6 13.8003 5.40524   4
 -10  10   6 2.00924 5.56367   3
   9 -10  -6 7.64313 3.80914   2
  -9  10   6 2.53403 5.14348   4
  -9  10   6 -4.1226 4.66939   3
   8 -10  -6 1.92374 3.41578   2
  -8  10   6 3.32681 3.70419   3
  -8  10   6 6.38555 4.81437   4
   7 -10  -6 -1.8334 2.54323   2
  -7  10   6 5.23511 4.48066   3
  -7  10   6 -3.4022 3.56542   4
   6 -10  -6 3.36199 2.94613   2
  -6  10   6 4.48104 3.72098   4
  -6  10   6 7.05972 4.17757   3
   5 -10  -6 11.8117 3.10064   2
  -5  10   6 9.33295 4.13557   3
  -5  10   6 6.80469 3.49175   4
   4 -10  -6 -3.3977 2.69276   2
  -4  10   6 0.18484 4.24344   3
  -4  10   6 0.90521 3.37533   4
  -3  10   6 17.1353 4.41071   3
  -3  10   6 11.1300 3.48857   4
   2 -10  -6 7.71903 4.18029   1
   2 -10  -6 -2.2080 2.43094   2
  -2  10   6 -0.6234 2.98514   4
  -2  10   6 8.13433 4.47332   3
   1 -10  -6 3.88483 3.15329   2
   1 -10  -6 1.33855 5.28565   1
  -1  10   6 2.36299 3.03330   4
   0 -10  -6 9.84235 5.95358   1
   0 -10  -6 1.81603 3.31959   2
   0  10   6 -1.8388 3.08008   4
  -1 -10  -6 17.1290 7.07396   1
  -1 -10  -6 2.87135 3.71354   2
   1  10   6 2.11375 3.36596   4
  -2 -10  -6 -3.5910 7.87177   1
  -2 -10  -6 -6.4524 4.33514   2
   2  10   6 5.57676 4.18862   4
  11 -11  -6 -1.1503 5.32741   2
 -11  11   6 -0.6844 6.82464   3
 -11  11   6 8.00360 7.21921   4
  10 -11  -6 6.34464 4.33903   2
 -10  11   6 -3.8091 5.72543   3
 -10  11   6 -2.8656 5.96444   4
   9 -11  -6 2.24634 3.74437   2
  -9  11   6 11.0337 6.07055   4
  -9  11   6 2.69508 5.12324   3
   8 -11  -6 0.13220 4.04757   2
  -8  11   6 -7.5876 4.80076   4
  -8  11   6 -5.9099 4.62217   3
   7 -11  -6 -4.2022 3.21860   2
  -7  11   6 4.79428 4.42517   3
  -7  11   6 1.26561 4.44202   4
   6 -11  -6 1.88960 3.45390   2
  -6  11   6 3.50772 4.28406   3
  -6  11   6 0.71107 4.14953   4
   5 -11  -6 3.66234 3.36297   2
  -5  11   6 -8.0424 3.68775   4
  -5  11   6 -1.0394 4.31069   3
   4 -11  -6 0.66415 2.47300   2
  -4  11   6 5.51223 5.36783   3
  -4  11   6 -0.9599 3.46196   4
   3 -11  -6 4.62816 3.18090   2
  -3  11   6 3.61552 4.62789   3
  -3  11   6 1.93432 3.40957   4
   2 -11  -6 4.61104 3.47061   2
  -2  11   6 3.66116 5.48465   3
  -2  11   6 -2.0463 3.38315   4
   1 -11  -6 -2.8096 3.35732   2
  -1  11   6 -0.8778 3.66500   4
   0 -11  -6 -0.2526 3.80571   2
   0  11   6 2.87130 6.66717   4
  -1 -11  -6 -2.0809 5.13844   2
  -1 -11  -6 12.2305 8.79887   1
   1  11   6 -2.9033 3.79519   4
  10 -12  -6 7.12456 5.30533   2
 -10  12   6 -1.3344 5.93377   3
 -10  12   6 5.06424 7.14330   4
   9 -12  -6 -0.6555 4.88372   2
  -9  12   6 -7.6131 5.54521   3
  -9  12   6 -6.1545 5.94469   4
   8 -12  -6 0.39868 3.99401   2
  -8  12   6 -9.5069 5.14735   3
  -8  12   6 2.03256 5.43731   4
   7 -12  -6 -2.4636 3.26667   2
  -7  12   6 0.14443 5.19016   3
  -7  12   6 2.14970 4.92317   4
   6 -12  -6 2.06293 3.48639   2
  -6  12   6 3.30571 4.92337   4
  -6  12   6 4.70001 5.09409   3
   5 -12  -6 2.76526 3.23512   2
  -5  12   6 3.30102 4.54142   4
  -5  12   6 5.30401 5.75108   3
   4 -12  -6 -1.7651 3.39313   2
  -4  12   6 7.36229 5.79499   3
  -4  12   6 5.67521 4.58210   4
   3 -12  -6 8.32193 3.63839   2
  -3  12   6 4.45094 4.61595   4
  -3  12   6 4.57033 5.89102   3
   2 -12  -6 2.80757 4.22352   2
  -2  12   6 6.08017 3.77056   4
   1 -12  -6 2.40442 4.43250   2
  -1  12   6 3.58802 4.51660   4
   8 -13  -6 -3.7879 4.42290   2
  -8  13   6 1.13397 6.92174   4
  -8  13   6 -2.8568 6.23434   3
   7 -13  -6 -0.3620 4.06664   2
  -7  13   6 -3.5613 5.78222   4
  -7  13   6 -10.816 6.12591   3
   6 -13  -6 6.85196 3.80945   2
  -6  13   6 -1.6576 6.19276   3
  -6  13   6 6.64950 5.95449   4
   5 -13  -6 3.84156 3.89497   2
  -5  13   6 -0.3953 6.86156   3
  -5  13   6 -5.2643 5.37850   4
   4 -13  -6 -2.6287 3.89992   2
  -4  13   6 1.30391 6.71961   3
  -4  13   6 -2.4967 8.05862   4
   3 -13  -6 0.26067 4.07009   2
  -3  13   6 -1.1628 4.91177   4
  -2  13  -7 7.14407 5.51338   4
   2 -13   7 -3.4181 8.79585   2
  -3  13  -7 10.1833 6.20099   4
   3 -13   7 -0.4487 5.23720   3
   3 -13   7 -3.0031 5.23118   2
  -4  13  -7 0.11620 6.47194   4
   4 -13   7 -1.1377 5.56437   2
   4 -13   7 -0.0333 5.30246   3
  -5  13  -7 5.55669 6.40527   4
   5 -13   7 -3.9219 5.02016   3
   5 -13   7 -2.0004 6.08781   2
   6 -13   7 -4.9256 7.83859   2
   1  12  -7 -5.6945 6.72464   1
   1  12  -7 -3.8498 5.61905   4
  -1 -12   7 4.98202 5.11881   2
   0  12  -7 8.50136 5.07748   4
   0  12  -7 -1.0976 5.87064   1
  -1  12  -7 5.88723 5.25307   4
   1 -12   7 7.09753 4.71516   2
  -2  12  -7 -2.9857 4.60934   4
   2 -12   7 -0.7442 4.49103   2
   2 -12   7 -8.9578 3.95178   3
  -3  12  -7 0.46631 5.54571   4
   3 -12   7 10.6832 4.56899   3
   3 -12   7 -3.9080 4.35900   2
  -4  12  -7 1.10718 5.26759   4
   4 -12   7 -4.3583 4.47719   2
   4 -12   7 -3.1997 4.22857   3
  -5  12  -7 -7.9878 4.99470   4
   5 -12   7 -1.5367 4.46202   3
   5 -12   7 -1.4435 5.33714   2
   6 -12   7 9.16016 5.70980   2
   6 -12   7 -7.1047 4.17598   3
  -7  12  -7 5.48211 6.07998   4
   7 -12   7 -6.8516 4.25116   3
   3  11  -7 -7.3518 6.17810   1
   3  11  -7 -1.8636 4.84462   4
  -3 -11   7 -4.6716 4.94822   2
   2  11  -7 5.09538 4.73112   4
   2  11  -7 1.48594 6.29137   1
  -2 -11   7 0.74959 4.86868   2
   1  11  -7 -5.3345 4.43101   4
   1  11  -7 -1.3633 5.31047   1
  -1 -11   7 -0.4631 4.05174   2
   0  11  -7 10.6982 5.39864   1
   0  11  -7 6.26748 4.23148   4
   0 -11   7 0.01316 4.13873   2
  -1  11  -7 -9.3962 4.43069   1
  -1  11  -7 1.41557 3.81786   4
   1 -11   7 0.81182 3.61777   3
   1 -11   7 12.6514 4.10424   2
  -2  11  -7 0.67848 4.18728   4
  -2  11  -7 -3.3101 4.28440   1
   2 -11   7 1.25782 3.72649   2
  -3  11  -7 -3.5552 4.28555   4
   3 -11   7 -6.4119 4.16466   2
   3 -11   7 -1.0687 3.53030   3
  -4  11  -7 -6.6296 4.11076   1
  -4  11  -7 5.59537 4.97304   4
   4 -11   7 -4.2755 3.56251   3
   4 -11   7 1.51709 4.31747   2
  -5  11  -7 -0.6671 5.43488   4
   5 -11   7 -6.3809 3.54169   3
   5 -11   7 -1.3932 4.33361   2
  -6  11  -7 1.25073 5.48598   4
   6 -11   7 -1.1947 4.61185   2
   6 -11   7 -8.5247 3.66354   3
  -7  11  -7 6.56432 5.73584   4
   7 -11   7 -5.7690 3.33367   3
  -8  11  -7 7.88434 6.25863   4
   8 -11   7 0.15725 3.95336   3
   4  10  -7 -5.5584 6.08900   1
   4  10  -7 5.12383 4.87949   4
  -4 -10   7 -3.6744 5.19652   2
   3  10  -7 -0.3014 4.37194   4
   3  10  -7 5.48779 5.34821   1
  -3 -10   7 -7.0778 6.96728   2
   2  10  -7 3.32216 5.40497   1
   2  10  -7 0.11235 3.78770   4
  -2 -10   7 2.14442 4.60243   2
   1  10  -7 -4.1262 4.50538   1
   1  10  -7 1.95714 3.80946   4
  -1 -10   7 -0.0297 3.42191   2
   0  10  -7 4.26599 4.19976   1
   0  10  -7 5.88019 3.61865   4
   0 -10   7 -1.5887 3.33826   3
   0 -10   7 2.53890 3.64826   2
  -1  10  -7 -2.4562 3.93879   1
  -1  10  -7 0.82491 3.60713   4
   1 -10   7 9.64271 3.55871   2
   1 -10   7 1.13594 2.96969   3
  -2  10  -7 -0.4450 4.17161   1
  -2  10  -7 -1.5276 3.92980   4
   2 -10   7 3.10850 3.15483   3
   2 -10   7 6.08481 3.50140   2
  -3  10  -7 -0.8539 4.02165   4
  -3  10  -7 -6.7621 3.49249   1
   3 -10   7 -3.3381 2.89107   3
   3 -10   7 -1.7837 3.34132   2
  -4  10  -7 5.74131 3.88594   1
  -4  10  -7 8.07884 4.32570   4
   4 -10   7 -3.0659 3.74655   2
   4 -10   7 2.09047 3.32055   3
  -5  10  -7 2.85070 4.59618   4
  -5  10  -7 1.86812 4.20369   1
   5 -10   7 -0.9263 3.25835   3
   5 -10   7 2.74586 4.07658   2
  -6  10  -7 1.23327 5.07955   4
  -6  10  -7 -2.1298 4.97465   1
   6 -10   7 -2.5958 3.29016   3
  -7  10  -7 1.67495 5.00333   4
   7 -10   7 -7.4034 3.39628   3
  -8  10  -7 12.4488 6.23710   4
  -9  10  -7 2.95052 5.97078   4
   9 -10   7 -7.8899 3.62421   3
   5   9  -7 3.39461 4.38807   4
   5   9  -7 7.13032 6.41015   1
  -5  -9   7 5.45954 4.57642   2
   4   9  -7 -3.2427 5.27042   1
   4   9  -7 13.6285 3.84824   4
  -4  -9   7 -0.5308 4.76203   2
   3   9  -7 -0.9405 3.44641   4
   3   9  -7 -7.2584 4.66385   1
  -3  -9   7 1.50772 3.91364   2
   2   9  -7 -0.6009 3.16200   4
   2   9  -7 5.83738 4.12668   1
  -2  -9   7 2.27914 3.69688   2
   1   9  -7 -0.0743 3.22370   4
   1   9  -7 -2.6509 3.93764   1
  -1  -9   7 6.05626 3.29151   2
  -1  -9   7 -1.6371 2.44250   3
   0   9  -7 6.20484 3.58660   1
   0   9  -7 5.69751 3.20807   4
   0  -9   7 -5.9158 3.19192   2
  -1   9  -7 11.8842 3.63358   4
  -1   9  -7 4.28482 3.93644   1
   1  -9   7 14.5406 2.95810   3
   1  -9   7 15.9042 3.57790   2
  -2   9  -7 5.86707 3.79290   4
  -2   9  -7 -1.6695 3.17234   1
   2  -9   7 7.40776 3.09461   2
   2  -9   7 5.19453 2.89629   3
  -3   9  -7 3.87012 3.65738   4
  -3   9  -7 -2.2248 3.52269   1
   3  -9   7 -1.0040 2.60781   3
   3  -9   7 -0.8467 3.04563   2
  -4   9  -7 0.21354 3.62314   4
   4  -9   7 9.27455 3.70935   2
   4  -9   7 5.53095 2.70645   3
  -5   9  -7 -0.5230 3.83908   1
  -5   9  -7 0.52294 4.30382   4
   5  -9   7 2.52113 3.08937   2
   5  -9   7 -3.3317 2.85821   3
  -6   9  -7 -0.9092 4.62753   1
  -6   9  -7 6.46123 4.09860   4
   6  -9   7 0.43099 3.92598   2
   6  -9   7 -5.6376 2.68523   3
  -7   9  -7 8.66918 5.39003   1
  -7   9  -7 0.15267 4.61104   4
   7  -9   7 -2.2683 2.79976   3
  -8   9  -7 7.95964 6.28503   1
  -8   9  -7 0.24063 4.96658   4
   8  -9   7 -5.5901 3.12233   3
  -9   9  -7 5.58065 7.33156   1
  -9   9  -7 4.79446 6.27456   4
   9  -9   7 -4.7571 3.77899   3
   6   8  -7 -6.5015 4.01002   4
   6   8  -7 3.38451 9.09093   1
  -6  -8   7 2.68603 5.16090   2
   5   8  -7 0.61083 3.52334   4
   5   8  -7 -0.7407 4.62417   1
  -5  -8   7 1.83157 4.17443   2
   4   8  -7 -2.7499 3.07170   4
   4   8  -7 1.21411 3.94068   1
  -4  -8   7 -3.2740 4.03549   2
   3   8  -7 6.86270 3.05973   4
   3   8  -7 -2.5717 3.70134   1
  -3  -8   7 -2.2951 3.23966   2
   2   8  -7 -1.9915 2.81425   4
   2   8  -7 1.61748 3.14494   1
  -2  -8   7 1.96846 3.38164   2
  -2  -8   7 3.07054 2.35006   3
   1   8  -7 0.57076 3.03164   1
   1   8  -7 -0.2632 2.86292   4
  -1  -8   7 5.20766 2.92773   2
  -1  -8   7 2.29986 2.08572   3
   0   8  -7 4.60166 3.14641   1
   0  -8   7 1.84893 2.83500   2
   0  -8   7 0.33826 2.01691   3
  -1   8  -7 11.7806 3.06002   1
   1  -8   7 24.9355 5.97098   2
   1  -8   7 17.4362 2.71744   3
  -2   8  -7 4.75179 3.01945   4
   2  -8   7 9.39740 2.85625   2
  -3   8  -7 3.08519 3.23146   4
  -3   8  -7 -3.4919 2.61369   1
   3  -8   7 0.01199 2.22681   3
   3  -8   7 1.23961 2.46270   2
  -4   8  -7 0.91829 3.58782   4
   4  -8   7 -3.3510 2.27000   2
   4  -8   7 1.09555 2.24752   3
  -5   8  -7 6.11723 3.76989   4
  -5   8  -7 6.92228 3.50709   1
   5  -8   7 -0.4650 2.61397   3
   5  -8   7 4.16915 2.65303   2
  -6   8  -7 8.89212 4.84661   1
  -6   8  -7 4.45998 4.16112   4
   6  -8   7 -3.9181 2.54647   3
  -7   8  -7 10.6213 5.16046   1
  -7   8  -7 3.42293 4.27846   4
   7  -8   7 1.92086 3.06904   3
  -8   8  -7 -0.3140 5.60692   1
  -8   8  -7 -0.6391 4.98908   4
   8  -8   7 -1.4171 3.09498   3
  -9   8  -7 -1.9301 5.65394   4
  -9   8  -7 -2.8355 6.50659   1
   9  -8   7 -0.9300 4.03685   3
 -10   8  -7 3.90422 5.96985   4
 -10   8  -7 -10.933 8.13694   1
  10  -8   7 -2.1592 4.61147   3
   7   7  -7 -4.1128 3.68728   4
   7   7  -7 -2.0374 5.51626   1
  -7  -7   7 4.11190 5.00705   2
   6   7  -7 0.28891 3.29193   4
   6   7  -7 3.60205 4.85004   1
  -6  -7   7 -3.8235 4.21246   2
   5   7  -7 6.23155 3.99072   1
   5   7  -7 -0.5996 2.77878   4
  -5  -7   7 1.53519 4.15084   2
   4   7  -7 6.41674 2.87370   4
   4   7  -7 9.48504 3.99492   1
  -4  -7   7 3.97712 3.27507   2
   3   7  -7 0.40697 3.46465   1
   3   7  -7 11.1909 2.90996   4
  -3  -7   7 6.13381 2.25224   3
  -3  -7   7 2.90562 3.50458   2
   2   7  -7 0.98217 2.26224   4
   2   7  -7 3.87626 3.07224   1
  -2  -7   7 4.32968 2.03645   3
  -2  -7   7 0.54715 3.18726   2
   1   7  -7 -0.9955 2.73946   1
  -1  -7   7 2.20228 2.95436   2
  -1  -7   7 2.68644 1.72476   3
   0   7  -7 22.0214 3.13097   4
   0   7  -7 22.8626 3.43101   1
   0  -7   7 20.7488 3.10633   2
   0  -7   7 25.0651 2.77525   3
  -1   7  -7 29.1536 3.75794   1
   1  -7   7 27.6501 3.14102   2
  -2   7  -7 14.6451 2.82971   1
  -2   7  -7 20.4181 3.49479   4
   2  -7   7 15.5333 2.77600   2
   2  -7   7 13.8445 2.48530   3
  -3   7  -7 -0.0084 2.31019   1
  -3   7  -7 2.05141 3.03956   4
   3  -7   7 1.10131 2.13998   3
   3  -7   7 2.69101 2.26666   2
  -4   7  -7 -0.2459 3.00092   4
  -4   7  -7 3.26960 2.74811   1
   4  -7   7 -1.3315 2.12169   2
   4  -7   7 -2.0199 2.12005   3
  -5   7  -7 5.67397 3.09231   1
  -5   7  -7 1.63703 3.48919   4
   5  -7   7 2.09939 2.69775   3
   5  -7   7 2.10428 2.23849   2
  -6   7  -7 4.41087 3.92102   4
  -6   7  -7 -3.4810 3.89639   1
   6  -7   7 2.53244 2.58667   3
  -7   7  -7 3.45857 4.72979   1
  -7   7  -7 6.94141 4.19094   4
   7  -7   7 3.86529 2.77924   3
  -8   7  -7 -4.8801 5.47891   1
  -8   7  -7 -1.5483 4.42112   4
   8  -7   7 -1.6601 3.06795   3
  -9   7  -7 -3.8640 6.39588   1
  -9   7  -7 -2.6971 5.16388   4
   9  -7   7 3.88489 3.90362   3
 -10   7  -7 3.75651 5.58429   4
 -10   7  -7 1.50642 8.03384   1
  10  -7   7 -2.9670 3.96184   3
   8   6  -7 0.04329 3.99536   4
   8   6  -7 0.31209 5.33126   1
  -8  -6   7 1.74912 5.55870   2
   7   6  -7 -0.7100 4.53584   1
   7   6  -7 -4.9380 3.18921   4
  -7  -6   7 -1.6454 3.73481   2
   6   6  -7 -1.6499 3.94556   1
   6   6  -7 -0.1772 2.75639   4
  -6  -6   7 2.79287 3.34273   2
   5   6  -7 7.32655 3.72502   1
  -5  -6   7 2.46670 3.69339   2
   4   6  -7 14.2694 2.67986   4
   4   6  -7 16.8806 4.23944   1
  -4  -6   7 16.6855 2.36034   3
  -4  -6   7 15.0106 3.59675   2
   3   6  -7 7.33158 2.48053   4
   3   6  -7 5.05959 3.07663   1
  -3  -6   7 7.19516 3.24097   2
  -3  -6   7 8.01329 2.16834   3
   2   6  -7 5.87837 2.00670   4
  -2  -6   7 2.24683 2.71818   2
  -2  -6   7 4.99686 1.80479   3
   1   6  -7 12.2479 2.25258   4
   1   6  -7 10.8955 2.72550   1
  -1  -6   7 12.3608 2.81427   2
  -1  -6   7 10.3481 1.75102   3
   0   6  -7 34.7539 3.03816   4
   0   6  -7 37.4380 2.93385   1
   0  -6   7 34.5885 3.05810   2
   0  -6   7 40.7130 2.82246   3
  -1   6  -7 30.9890 2.83582   1
  -1   6  -7 28.3542 2.98274   4
   1  -6   7 33.4260 3.14973   2
   1  -6   7 28.7495 2.45515   3
  -2   6  -7 25.2558 2.72892   1
  -2   6  -7 32.4180 3.34952   4
   2  -6   7 28.1572 2.89320   3
   2  -6   7 33.3554 2.93848   2
  -3   6  -7 6.19555 2.11226   1
   3  -6   7 6.00324 2.12493   2
   3  -6   7 9.64857 2.28759   3
  -4   6  -7 -2.4338 2.76016   4
  -4   6  -7 0.73689 2.21294   1
   4  -6   7 -2.1112 1.98317   2
   4  -6   7 -0.6687 1.96688   3
  -5   6  -7 6.35611 2.94168   1
  -5   6  -7 4.50493 3.30368   4
   5  -6   7 8.26353 1.77190   2
   5  -6   7 3.10972 2.23142   3
  -6   6  -7 5.90922 3.84736   4
  -6   6  -7 11.4851 4.66190   1
   6  -6   7 7.73044 2.51736   3
  -7   6  -7 3.24786 4.62928   1
  -7   6  -7 0.49875 4.07461   4
   7  -6   7 0.60793 2.52690   3
  -8   6  -7 3.71374 4.67628   4
  -8   6  -7 -3.4039 5.11891   1
   8  -6   7 1.46753 2.80444   3
  -9   6  -7 0.99910 5.81124   1
  -9   6  -7 0.21327 4.81247   4
   9  -6   7 -0.6609 3.46380   3
 -10   6  -7 8.38330 7.61475   1
 -10   6  -7 -1.6302 5.88124   4
   9   5  -7 0.89938 5.24439   1
   9   5  -7 6.36741 4.35453   4
  -9  -5   7 3.36055 5.95098   2
   8   5  -7 1.23088 4.62009   1
   8   5  -7 -0.7314 3.40420   4
  -8  -5   7 -4.7699 4.73262   2
   7   5  -7 2.07517 4.02564   1
   7   5  -7 1.92945 2.96639   4
  -7  -5   7 -2.6541 3.91042   2
   6   5  -7 5.58595 2.57447   4
   6   5  -7 0.03265 3.86874   1
  -6  -5   7 1.31726 3.33244   2
   5   5  -7 36.6435 3.06211   4
   5   5  -7 33.9767 4.45726   1
  -5  -5   7 33.8960 3.32523   3
  -5  -5   7 24.2500 3.91806   2
   4   5  -7 3.95416 1.80020   4
   4   5  -7 6.41376 2.86150   1
  -4  -5   7 -2.2351 2.26713   2
  -4  -5   7 6.13988 1.95302   3
   3   5  -7 11.0810 3.60797   1
   3   5  -7 16.8895 2.26365   4
  -3  -5   7 18.7143 3.24873   2
  -3  -5   7 18.1804 2.24141   3
   2   5  -7 1.33199 1.62198   4
   2   5  -7 -0.1168 2.01604   1
  -2  -5   7 2.43731 2.49486   2
  -2  -5   7 1.71457 1.39593   3
   1   5  -7 5.44155 1.68557   1
   1   5  -7 6.62079 1.90001   4
  -1  -5   7 6.58577 1.37172   3
  -1  -5   7 10.8401 2.30005   2
   0   5  -7 64.4552 3.51267   4
   0   5  -7 62.4894 3.61234   1
   0  -5   7 64.0816 3.62460   2
   0  -5   7 70.7429 3.30168   3
  -1   5  -7 100.019 4.61337   1
  -1   5  -7 105.821 4.60210   4
   1  -5   7 110.970 4.53089   2
   1  -5   7 104.791 4.29369   3
  -2   5  -7 29.7880 3.12941   4
  -2   5  -7 32.4169 2.75241   1
   2  -5   7 26.1369 2.69135   3
   2  -5   7 31.1147 2.66713   2
  -3   5  -7 15.2420 2.65967   1
  -3   5  -7 19.7181 2.89215   4
   3  -5   7 22.3354 2.70397   3
   3  -5   7 18.3310 2.11979   2
  -4   5  -7 1.07858 2.21634   1
  -4   5  -7 0.83776 2.71023   4
  -4   5  -7 -2.3066 1.43146   2
   4  -5   7 0.49170 1.92283   3
   4  -5   7 0.86143 1.50263   2
  -5   5  -7 1.48633 3.17844   1
  -5   5  -7 6.37072 3.34964   4
   5  -5   7 4.56171 2.32143   3
  -6   5  -7 7.15480 3.75722   4
  -6   5  -7 17.2404 3.62216   1
   6  -5   7 6.60145 2.50073   3
  -7   5  -7 5.31174 4.32694   1
  -7   5  -7 1.24991 3.99387   4
   7  -5   7 0.39169 2.71149   3
  -8   5  -7 7.63761 4.23827   4
  -8   5  -7 -8.0092 4.85656   1
   8  -5   7 2.06338 2.85875   3
  -9   5  -7 3.68855 4.88238   4
  -9   5  -7 1.36994 6.05370   1
   9  -5   7 -2.0769 3.61095   3
 -10   5  -7 -0.4083 7.51709   1
 -10   5  -7 -0.2931 6.25346   4
  10  -5   7 3.52155 4.43169   3
   9   4  -7 -7.6555 3.56155   4
   9   4  -7 3.30080 4.82575   1
  -9  -4   7 -0.5219 6.00856   2
   8   4  -7 6.21191 4.31847   1
   8   4  -7 0.36806 3.17345   4
  -8  -4   7 1.06089 4.75790   2
   7   4  -7 -0.3299 2.45256   4
   7   4  -7 0.92513 3.64691   1
  -7  -4   7 2.96732 3.26539   2
   6   4  -7 0.25141 3.16808   1
   6   4  -7 3.34065 1.97815   4
  -6  -4   7 -0.3836 2.42781   3
  -6  -4   7 5.82267 3.28870   2
   5   4  -7 62.3253 5.11909   1
   5   4  -7 66.9624 3.19264   4
  -5  -4   7 66.8175 3.70756   3
  -5  -4   7 65.3403 4.95520   2
   4   4  -7 -0.1976 2.55458   1
   4   4  -7 -1.4531 1.30334   4
  -4  -4   7 3.24983 2.22023   2
  -4  -4   7 -0.4486 1.64072   3
   3   4  -7 117.094 4.28286   4
  -3  -4   7 115.667 4.45607   3
  -3  -4   7 116.291 5.69752   2
   2   4  -7 20.4261 2.18990   4
   2   4  -7 20.5085 2.43668   1
  -2  -4   7 21.4339 2.85879   2
  -2  -4   7 17.9782 2.05928   3
   1   4  -7 6.39595 1.67453   4
   1   4  -7 3.44548 1.65443   1
  -1  -4   7 4.13068 1.16990   3
  -1  -4   7 4.81021 1.81089   2
   0   4  -7 65.9253 3.41502   1
   0   4  -7 68.6444 3.33660   4
   0  -4   7 70.6616 3.09578   3
   0  -4   7 73.6603 3.55031   2
  -1   4  -7 140.918 5.38615   4
  -1   4  -7 137.118 5.31299   1
   1  -4   7 143.287 5.02792   3
   1  -4   7 141.533 5.10604   2
  -2   4  -7 18.1245 2.51762   4
  -2   4  -7 14.0084 2.12209   1
   2  -4   7 12.8339 1.70250   3
   2  -4   7 16.8030 1.95682   2
  -3   4  -7 34.0960 3.17858   4
  -3   4  -7 30.0006 1.83606   2
  -3   4  -7 35.7123 2.87887   1
   3  -4   7 27.6200 2.69102   3
   3  -4   7 32.0519 2.20656   2
   4  -4   7 0.36145 1.69809   3
  -5   4  -7 0.72133 5.81302   4
  -5   4  -7 3.36812 2.87039   1
   5  -4   7 8.10046 2.40036   3
  -6   4  -7 1.86531 3.28571   4
  -6   4  -7 8.56415 3.74652   1
   6  -4   7 4.03541 2.33652   3
  -7   4  -7 -1.8777 3.82427   4
  -7   4  -7 5.37512 3.98170   1
   7  -4   7 7.78978 2.83088   3
  -8   4  -7 10.5670 5.01996   1
  -8   4  -7 5.81010 4.60553   4
   8  -4   7 4.02404 3.26303   3
  -9   4  -7 5.54964 5.20742   4
  -9   4  -7 2.89895 5.69964   1
   9  -4   7 1.68118 3.66843   3
 -10   4  -7 7.44076 5.31292   4
 -10   4  -7 7.72004 7.33629   1
  10  -4   7 -7.1776 4.02057   3
  10   3  -7 3.69723 5.44376   1
  10   3  -7 2.75346 4.09060   4
 -10  -3   7 11.7270 6.69117   2
   9   3  -7 10.9259 3.58543   4
   9   3  -7 1.18657 4.43972   1
  -9  -3   7 11.3006 5.51130   2
   8   3  -7 1.04926 4.06692   1
   8   3  -7 1.37327 2.75314   4
  -8  -3   7 4.42879 4.27631   2
   7   3  -7 5.12039 1.99460   4
   7   3  -7 -0.2334 3.02789   1
  -7  -3   7 -0.9495 3.72172   2
  -7  -3   7 -0.2474 2.78667   3
   6   3  -7 10.6009 3.36795   1
   6   3  -7 14.2951 2.20179   4
  -6  -3   7 12.6543 2.79625   3
  -6  -3   7 13.6156 3.32488   2
   5   3  -7 69.3452 4.89544   1
   5   3  -7 66.5955 2.93274   4
  -5  -3   7 62.5502 3.71531   3
  -5  -3   7 60.7309 4.62138   2
   4   3  -7 100.670 3.57725   4
   4   3  -7 100.472 5.40988   1
  -4  -3   7 101.968 4.16803   3
  -4  -3   7 88.6129 5.05236   2
   3   3  -7 187.879 5.79396   4
  -3  -3   7 197.107 6.34844   3
  -3  -3   7 192.114 7.11757   2
   2   3  -7 41.6196 2.82608   1
   2   3  -7 38.5350 2.21547   4
  -2  -3   7 37.9704 2.44538   3
  -2  -3   7 42.1825 2.91324   2
   1   3  -7 5.35012 1.39673   4
   1   3  -7 8.90231 1.72664   1
  -1  -3   7 3.86733 1.59250   2
  -1  -3   7 7.05149 1.35084   3
   0   3  -7 48.1186 2.60979   4
   0   3  -7 44.2635 2.60180   1
   0  -3   7 47.8488 2.88553   2
   0  -3   7 45.3904 2.37315   3
  -1   3  -7 125.699 4.85562   1
  -1   3  -7 127.202 4.86422   4
   1  -3   7 128.311 4.62795   2
   1  -3   7 129.347 4.57494   3
  -2   3  -7 58.3211 3.36153   4
  -2   3  -7 55.4326 3.08499   1
   2  -3   7 51.8010 2.67198   2
   2  -3   7 56.8057 2.87229   3
  -3   3  -7 46.3504 3.21812   4
  -3   3  -7 48.0038 3.03772   1
  -4   3  -7 3.06768 2.16746   4
  -4   3  -7 -0.6595 2.26045   1
   4  -3   7 3.20937 1.88110   3
   5  -3   7 1.53942 2.10954   3
  -6   3  -7 5.81206 3.50411   1
  -6   3  -7 -0.6478 3.35036   4
   6  -3   7 1.67701 2.45439   3
  -7   3  -7 1.31502 3.77704   1
  -7   3  -7 -1.3012 3.60896   4
   7  -3   7 1.16011 2.61153   3
  -8   3  -7 -3.6498 4.26642   1
  -8   3  -7 4.22630 4.38520   4
   8  -3   7 -2.5824 3.06128   3
  -9   3  -7 5.87163 5.71939   1
   9  -3   7 -0.3935 4.45901   4
   9  -3   7 1.53374 3.49693   3
 -10   3  -7 -7.1249 6.63495   1
  10  -3   7 -2.1806 5.23171   4
  10  -3   7 1.37564 4.39464   3
  10   2  -7 11.1735 8.19013   1
  10   2  -7 9.92596 3.96673   4
 -10  -2   7 10.7143 5.82835   2
   9   2  -7 13.6782 3.14422   4
   9   2  -7 7.56182 4.22509   1
  -9  -2   7 10.6668 5.00494   2
   8   2  -7 8.69056 3.92444   1
   8   2  -7 8.93772 2.48552   4
  -8  -2   7 3.47086 3.28545   3
  -8  -2   7 10.3410 3.84163   2
   7   2  -7 1.69552 1.71097   4
   7   2  -7 0.44064 2.96327   1
  -7  -2   7 -2.2366 3.20530   2
  -7  -2   7 3.52464 2.75024   3
   6   2  -7 17.2121 3.79657   1
   6   2  -7 16.9127 2.07789   4
  -6  -2   7 14.1402 2.62506   3
  -6  -2   7 17.8563 3.67340   2
   5   2  -7 71.0072 4.64864   1
   5   2  -7 70.6279 2.77016   4
  -5  -2   7 70.7261 3.71567   3
  -5  -2   7 66.8039 4.56348   2
   4   2  -7 168.967 4.93794   4
  -4  -2   7 163.652 7.53111   2
  -4  -2   7 169.393 5.87751   3
   3   2  -7 109.535 3.36540   4
   3   2  -7 103.806 4.72089   1
  -3  -2   7 105.467 4.64783   2
  -3  -2   7 97.5595 3.40256   4
  -3  -2   7 103.164 4.07031   3
   2   2  -7 62.7132 3.22565   1
   2   2  -7 63.9636 2.43272   4
  -2  -2   7 62.7294 2.97077   3
  -2  -2   7 62.8385 3.44245   2
  -2  -2   7 59.5514 2.12154   4
   1   2  -7 0.97838 1.11139   1
   1   2  -7 -1.0269 0.99145   4
  -1  -2   7 0.57873 0.88252   3
  -1  -2   7 0.78177 1.46967   2
  -1  -2   7 -0.7571 0.88737   4
   0   2  -7 121.750 4.31688   4
   0   2  -7 122.398 4.73619   1
   0  -2   7 126.835 4.65100   2
   0  -2   7 118.568 4.26523   3
  -1   2  -7 169.088 5.99144   1
  -1   2  -7 167.187 5.81633   4
   1  -2   7 172.725 5.67519   3
   1  -2   7 175.400 5.55888   2
  -2   2  -7 114.247 4.74815   4
  -2   2  -7 102.675 3.35489   2
  -2   2  -7 112.449 4.57016   1
   2  -2   7 108.857 3.62674   2
   2  -2   7 103.309 4.06031   3
  -3   2  -7 40.5188 3.12015   4
  -3   2  -7 46.8356 3.07472   1
   3  -2   7 44.2520 2.62206   3
  -4   2  -7 1.96906 2.41610   4
  -4   2  -7 2.78688 2.52563   1
   4  -2   7 0.61892 1.72002   3
  -5   2  -7 2.40612 3.04442   1
  -5   2  -7 0.75345 3.21220   4
  -6   2  -7 4.17091 3.31902   4
  -6   2  -7 5.74297 3.60622   1
   6  -2   7 2.84669 1.98439   3
  -7   2  -7 3.67750 3.52309   4
  -7   2  -7 0.85761 3.94220   1
   7  -2   7 3.33431 2.32065   3
   7  -2   7 7.21812 3.80644   4
  -8   2  -7 0.67234 4.61743   1
   8  -2   7 4.20667 3.24511   3
   8  -2   7 2.06888 4.23296   4
  -9   2  -7 3.61677 5.93150   1
   9  -2   7 -2.9669 4.63553   4
   9  -2   7 -1.7317 3.74985   3
  10  -2   7 -2.6424 4.26981   3
  10  -2   7 10.6245 5.81534   4
  11   1  -7 0.67557 5.53325   1
 -11  -1   7 -6.8090 9.92236   2
  10   1  -7 -2.6848 3.63557   4
  10   1  -7 5.88279 4.58151   1
 -10  -1   7 3.23899 5.19816   2
   9   1  -7 19.0047 4.67383   1
   9   1  -7 18.2719 3.43013   4
  -9  -1   7 18.5195 4.09753   3
  -9  -1   7 18.1807 4.99208   2
   8   1  -7 15.2697 4.16617   1
   8   1  -7 24.8149 2.78706   4
  -8  -1   7 22.1853 3.72520   3
  -8  -1   7 19.8847 5.02039   2
   7   1  -7 7.74402 1.85643   4
   7   1  -7 6.79929 3.57870   1
  -7  -1   7 12.1394 3.74141   2
  -7  -1   7 6.46813 2.81176   3
   6   1  -7 4.37974 2.82318   1
  -6  -1   7 5.23250 2.28397   3
  -6  -1   7 3.73820 2.86099   2
   5   1  -7 106.563 3.38091   4
   5   1  -7 104.152 5.54671   1
  -5  -1   7 106.710 4.68265   3
  -5  -1   7 105.742 5.48732   2
   4   1  -7 148.741 4.21798   4
   4   1  -7 145.596 4.43538   4
   4   1  -7 155.228 6.06455   1
  -4  -1   7 145.865 5.98072   2
  -4  -1   7 150.290 5.41711   3
   3   1  -7 195.725 6.94049   1
  -3  -1   7 200.432 6.49052   3
  -3  -1   7 190.147 6.93933   2
   2   1  -7 84.2176 3.65632   1
   2   1  -7 78.7179 2.46068   4
  -2  -1   7 77.6429 3.29827   3
  -2  -1   7 81.2896 3.81982   2
   1   1  -7 -0.1422 1.07931   1
   1   1  -7 2.00149 0.97528   4
  -1  -1   7 0.66458 0.86981   3
  -1  -1   7 0.47444 1.34912   2
  -1  -1   7 1.17720 0.90115   4
   0   1  -7 160.744 5.67888   1
   0   1  -7 160.528 5.14397   4
   0  -1   7 163.354 5.45435   2
   0  -1   7 158.709 5.33483   3
  -1   1  -7 174.345 6.14456   1
  -1   1  -7 177.805 5.91081   4
   1  -1   7 176.250 5.54267   2
   1  -1   7 179.380 5.77732   3
  -2   1  -7 85.8259 3.09891   2
  -2   1  -7 99.9462 4.36536   4
  -2   1  -7 97.0347 4.28022   1
  -2   1  -7 91.4728 3.16688   2
   2  -1   7 99.1905 3.81725   3
  -3   1  -7 29.9871 3.03690   4
   3  -1   7 35.2493 2.29513   3
  -4   1  -7 4.06572 3.27624   4
  -4   1  -7 -2.4340 2.50851   1
   4  -1   7 0.70584 1.66139   3
  -5   1  -7 -2.3738 2.77645   1
  -5   1  -7 -1.1403 2.66268   4
   5  -1   7 -0.7865 1.72890   3
   5  -1   7 1.58940 2.97166   4
  -6   1  -7 6.19392 3.42721   1
   6  -1   7 6.32019 3.42566   4
   6  -1   7 3.01832 2.18830   3
  -7   1  -7 -0.5224 4.09900   1
   7  -1   7 -1.9050 3.49820   4
   7  -1   7 1.70200 2.65886   3
  -8   1  -7 -1.6948 4.41509   1
   8  -1   7 3.53006 4.50242   4
   8  -1   7 -3.1998 3.12804   3
   9  -1   7 -5.5365 4.73178   4
   9  -1   7 -0.2489 3.78631   3
  11   0  -7 0.07250 4.81517   1
 -11   0   7 2.16133 5.58196   2
  10   0  -7 11.3728 7.24519   4
  10   0  -7 3.82267 4.08574   1
 -10   0   7 -4.1422 4.80663   3
 -10   0   7 11.4509 4.94112   2
   9   0  -7 43.5505 3.86670   4
   9   0  -7 43.0865 5.50966   1
  -9   0   7 51.1946 6.47159   3
  -9   0   7 44.3977 5.94288   2
   8   0  -7 21.6891 2.57447   4
   8   0  -7 17.6794 4.12751   1
  -8   0   7 20.9933 3.80955   3
  -8   0   7 13.1091 3.66624   2
   7   0  -7 10.4873 1.80636   4
   7   0  -7 3.86279 2.84465   1
  -7   0   7 10.0414 2.82821   3
  -7   0   7 3.86345 3.07827   2
   6   0  -7 14.9513 3.18227   1
   6   0  -7 15.1699 1.53056   4
  -6   0   7 12.7235 3.49055   2
  -6   0   7 16.9147 2.59094   3
   5   0  -7 98.4473 3.52114   4
   5   0  -7 105.115 3.07074   4
   5   0  -7 106.775 4.91007   1
  -5   0   7 106.513 4.66383   3
   4   0  -7 265.043 8.63618   1
  -4   0   7 245.977 8.63719   2
  -4   0   7 252.094 8.19061   3
   3   0  -7 146.038 5.44870   1
  -3   0   7 152.699 5.76773   2
  -3   0   7 148.777 5.30637   3
   2   0  -7 356.487 10.6177   1
  -2   0   7 362.608 10.4788   3
  -2   0   7 356.984 10.8175   2
   1   0  -7 4.31621 1.31334   1
  -1   0   7 7.57097 1.71820   2
  -1   0   7 7.81771 1.06085   4
  -1   0   7 4.26799 1.17023   3
  -1   0   7 8.45469 1.26164   4
   0   0  -7 93.1893 3.85746   1
   0   0  -7 95.7903 3.79235   2
   0   0   7 95.8827 3.54309   4
   0   0   7 90.2364 3.66327   2
   0   0   7 94.2110 3.65400   3
  -1   0  -7 148.902 4.97048   2
  -1   0  -7 155.254 5.65925   1
   1   0   7 158.608 5.25761   3
   1   0   7 156.243 5.42293   4
  -2   0  -7 95.0251 4.23855   1
  -2   0  -7 84.6997 2.93450   2
  -2   0  -7 78.1782 3.27996   2
   2   0   7 88.6233 3.50215   3
   2   0   7 84.3474 4.09647   4
  -3   0  -7 16.0095 1.49254   2
  -3   0  -7 14.6199 3.02383   1
   3   0   7 12.7416 1.74493   3
   3   0   7 14.5481 2.59236   4
  -4   0  -7 8.53698 3.16481   1
   4   0   7 13.7265 3.11949   4
  -5   0  -7 1.92847 2.87536   1
   5   0   7 1.26390 3.22790   4
   5   0   7 1.76125 1.76651   3
  -6   0  -7 4.27724 3.74862   1
   6   0   7 6.28346 2.40265   3
   6   0   7 7.72596 3.74073   4
  -7   0  -7 0.63247 4.31892   1
   7   0   7 8.47197 2.95205   3
   7   0   7 -0.9707 3.80586   4
  -8   0  -7 1.65181 4.90792   1
   8   0   7 -3.4996 3.33764   3
   8   0   7 1.87414 4.08452   4
  -9   0  -7 -1.0683 6.54415   1
   9   0   7 1.27035 4.80780   4
   9   0   7 -0.5927 4.12622   3
  12  -1  -7 1.70053 5.91625   1
 -12   1   7 -14.392 6.25444   2
  11  -1  -7 -0.1154 4.97372   1
  11  -1  -7 3.78907 4.67007   4
 -11   1   7 3.12699 5.31221   2
 -11   1   7 -0.0446 5.52395   3
  10  -1  -7 11.4031 4.09918   1
  10  -1  -7 10.0021 3.51298   4
 -10   1   7 11.5068 4.45535   2
 -10   1   7 17.4271 5.20869   3
   9  -1  -7 43.5510 5.15827   1
   9  -1  -7 43.0690 3.91451   4
  -9   1   7 53.2912 6.10688   3
  -9   1   7 47.2748 6.09595   2
   8  -1  -7 21.6618 2.67241   4
   8  -1  -7 17.0154 3.92106   1
  -8   1   7 21.1625 4.04841   2
  -8   1   7 20.1444 4.00967   3
   7  -1  -7 23.0774 2.17465   4
   7  -1  -7 27.7814 3.70534   1
  -7   1   7 28.5241 3.52551   3
  -7   1   7 19.9010 3.73715   2
   6  -1  -7 0.38002 1.05620   4
   6  -1  -7 0.70116 1.89502   1
  -6   1   7 0.38803 2.06642   2
  -6   1   7 0.54536 1.89713   3
   5  -1  -7 80.1901 4.03799   1
  -5   1   7 81.0381 4.02459   3
  -5   1   7 82.3985 4.42119   2
   4  -1  -7 370.782 11.0791   1
  -4   1   7 371.590 11.0875   3
  -4   1   7 351.138 11.3988   2
   3  -1  -7 349.950 10.5480   1
  -3   1   7 351.440 10.5920   3
  -3   1   7 363.264 11.0711   2
   2  -1  -7 724.476 20.0306   1
  -2   1   7 753.693 20.1608   3
  -2   1   7 734.275 18.5831   4
  -2   1   7 765.955 20.4450   2
   1  -1  -7 -0.0821 1.02301   1
   1  -1  -7 -0.1807 1.37329   2
  -1   1   7 -0.5748 1.29797   4
  -1   1   7 -0.9277 0.91647   3
  -1   1   7 0.04341 0.79084   4
   0  -1  -7 88.1937 3.61003   2
   0  -1  -7 81.7619 3.62626   1
   0   1   7 82.3328 3.43090   3
   0   1   7 84.4141 3.22773   4
  -1  -1  -7 85.0048 3.32526   2
  -1  -1  -7 85.8968 3.99790   1
   1   1   7 86.1171 3.71607   4
   1   1   7 87.5296 3.51963   3
  -2  -1  -7 72.2108 3.88879   1
  -2  -1  -7 74.8489 2.85929   2
   2   1   7 75.0465 3.85846   4
   2   1   7 78.8810 3.44174   3
  -3  -1  -7 16.9625 2.92651   1
  -3  -1  -7 13.3896 1.42747   2
   3   1   7 12.1808 1.83359   3
   3   1   7 10.0249 2.23262   4
  -4  -1  -7 30.9871 4.54229   1
  -4  -1  -7 31.5462 2.16173   2
  -5  -1  -7 -1.4021 3.53059   1
  -5  -1  -7 4.01387 1.77104   2
   5   1   7 3.40701 2.93196   4
   5   1   7 3.61737 2.14941   3
  -6  -1  -7 4.05800 3.93463   1
   6   1   7 0.93443 2.44477   3
   6   1   7 3.39830 3.33984   4
  -7  -1  -7 -3.7728 4.60799   1
   7   1   7 -7.4040 3.40982   4
   7   1   7 1.15111 2.94256   3
  -8  -1  -7 -9.4463 8.71900   1
   8   1   7 -0.8054 4.47329   4
   8   1   7 -6.5467 3.65171   3
   9   1   7 -0.0233 4.97712   4
  12  -2  -7 -3.2526 5.61113   1
 -12   2   7 5.13824 7.48100   3
 -12   2   7 2.13776 6.19315   2
  11  -2  -7 -5.0443 4.37474   1
  11  -2  -7 -0.7178 3.93649   4
 -11   2   7 -8.2674 6.04230   3
 -11   2   7 7.48143 5.71458   2
  10  -2  -7 10.0932 4.43370   1
 -10   2   7 15.9264 5.03289   2
 -10   2   7 24.2752 5.11396   3
   9  -2  -7 32.5881 3.74765   4
   9  -2  -7 40.0275 5.23954   1
  -9   2   7 43.0159 5.39707   3
  -9   2   7 29.2432 4.80322   2
   8  -2  -7 59.5293 3.49646   4
   8  -2  -7 61.3708 5.06637   1
  -8   2   7 41.6219 4.84729   2
  -8   2   7 56.0171 5.25808   3
   7  -2  -7 40.6373 2.69054   4
   7  -2  -7 40.9171 4.36795   1
  -7   2   7 38.3105 4.33700   2
  -7   2   7 43.3545 4.40554   3
   6  -2  -7 -0.8905 1.36604   4
   6  -2  -7 1.21738 1.23889   4
   6  -2  -7 -1.0569 1.59801   1
  -6   2   7 1.08728 2.36142   2
  -6   2   7 -3.4489 1.78296   3
   5  -2  -7 116.782 4.82496   1
   5  -2  -7 111.462 3.22120   4
  -5   2   7 112.264 5.18252   2
  -5   2   7 120.401 5.14107   3
   4  -2  -7 238.149 7.76009   1
  -4   2   7 240.780 8.05421   3
  -4   2   7 244.298 8.36940   2
   3  -2  -7 419.674 12.2665   1
  -3   2   7 432.110 12.7125   3
  -3   2   7 445.814 12.9179   2
   2  -2  -7 281.216 8.41069   1
   2  -2  -7 270.428 8.78090   2
  -2   2   7 262.761 7.53600   4
  -2   2   7 278.749 8.59367   3
  -2   2   7 274.536 7.27338   4
   1  -2  -7 1.32094 1.38354   2
   1  -2  -7 4.33406 1.34404   1
  -1   2   7 2.87186 0.95016   4
  -1   2   7 1.80412 1.05450   3
   0  -2  -7 18.7246 2.06387   2
   0  -2  -7 17.8168 1.93650   1
   0   2   7 19.0990 1.64360   4
   0   2   7 19.9207 1.74123   3
  -1  -2  -7 50.1971 2.60462   2
  -1  -2  -7 51.3459 3.28503   1
   1   2   7 50.9778 2.84384   4
   1   2   7 49.5643 2.72466   3
  -2  -2  -7 48.3018 4.65229   1
  -2  -2  -7 56.0417 2.64846   2
   2   2   7 55.8892 3.03401   3
   2   2   7 57.9835 3.34320   4
  -3  -2  -7 17.7188 4.29495   1
  -3  -2  -7 24.5580 2.03572   2
   3   2   7 26.2125 3.50441   4
   3   2   7 23.0265 2.51641   3
  -4  -2  -7 14.4587 3.87846   1
  -4  -2  -7 16.1876 2.11181   2
   4   2   7 16.9760 2.68629   3
   4   2   7 8.97001 2.88434   4
  -5  -2  -7 -1.5814 3.75201   1
  -5  -2  -7 2.63960 2.23210   2
   5   2   7 1.90864 2.25578   3
   5   2   7 -0.4915 3.10777   4
  -6  -2  -7 4.39882 4.48221   1
   6   2   7 0.51064 3.40643   4
   6   2   7 5.21991 5.69303   3
  -7  -2  -7 7.21898 5.04729   1
   7   2   7 -3.1066 4.06052   4
   7   2   7 -2.5838 3.45062   3
  -8  -2  -7 5.15861 6.87570   1
   8   2   7 1.69505 4.61941   4
  12  -3  -7 -2.7368 5.54730   1
 -12   3   7 -1.2725 6.42527   2
 -12   3   7 6.15271 7.03071   3
  11  -3  -7 -9.1227 4.51511   1
  11  -3  -7 -5.2824 3.89164   4
 -11   3   7 -0.0694 6.02824   3
 -11   3   7 2.46701 5.14663   2
  10  -3  -7 14.5288 3.50757   4
  10  -3  -7 6.56312 4.02471   1
 -10   3   7 11.4924 4.46197   2
 -10   3   7 9.41911 5.13977   3
   9  -3  -7 50.3518 4.10751   4
   9  -3  -7 47.2321 4.95248   1
  -9   3   7 51.0864 6.38550   3
  -9   3   7 45.1929 5.63286   2
   8  -3  -7 57.9660 4.52614   1
  -8   3   7 59.7386 5.28560   2
  -8   3   7 56.5800 5.74132   3
   7  -3  -7 47.0997 3.53086   1
  -7   3   7 44.2992 4.44990   2
  -7   3   7 44.1218 2.99430   4
  -7   3   7 42.2364 4.84704   3
   6  -3  -7 -0.8007 1.63834   1
  -6   3   7 0.85522 1.54641   4
  -6   3   7 3.90985 2.88232   3
  -6   3   7 -1.0105 2.24080   2
   5  -3  -7 16.1867 2.08312   1
   5  -3  -7 12.5254 1.14123   4
  -5   3   7 13.4693 1.62405   4
  -5   3   7 10.1017 2.19993   2
  -5   3   7 18.0148 2.45768   3
   4  -3  -7 147.650 4.27281   4
   4  -3  -7 158.654 6.30795   2
   4  -3  -7 151.850 5.37510   1
  -4   3   7 146.966 4.51359   4
  -4   3   7 155.083 6.00908   3
   3  -3  -7 292.936 8.76156   1
   3  -3  -7 270.441 7.87092   4
   3  -3  -7 311.090 9.62973   2
  -3   3   7 291.151 9.33043   3
  -3   3   7 290.569 7.84980   4
   2  -3  -7 142.298 5.51780   2
   2  -3  -7 138.919 5.12042   1
  -2   3   7 138.415 4.28572   4
  -2   3   7 146.982 5.39143   3
   1  -3  -7 21.6118 2.53191   2
   1  -3  -7 17.6217 2.02298   1
  -1   3   7 20.7410 1.96173   3
  -1   3   7 18.9708 1.50444   4
   0  -3  -7 -1.7234 1.44675   1
   0  -3  -7 2.55589 1.44316   2
   0   3   7 -0.1320 1.20611   3
   0   3   7 2.90425 1.26502   4
  -1  -3  -7 34.8262 2.35015   2
  -1  -3  -7 25.8756 2.86696   1
   1   3   7 34.1380 2.67955   3
   1   3   7 32.8165 2.37902   4
  -2  -3  -7 32.5591 4.15290   1
  -2  -3  -7 27.4077 2.16399   2
   2   3   7 23.3177 2.37113   3
   2   3   7 30.5934 3.17991   4
  -3  -3  -7 17.9987 2.11781   2
  -3  -3  -7 16.4197 3.60695   1
   3   3   7 15.5051 2.39521   3
   3   3   7 15.8282 3.01234   4
  -4  -3  -7 1.09363 3.45570   1
  -4  -3  -7 3.80865 2.21104   2
   4   3   7 6.29097 2.83131   4
   4   3   7 7.51725 2.52464   3
  -5  -3  -7 -0.1380 2.88723   2
  -5  -3  -7 6.29466 4.08212   1
   5   3   7 -1.9626 2.97120   4
   5   3   7 2.42958 2.63278   3
  -6  -3  -7 -1.3591 4.69942   1
   6   3   7 -2.6013 3.34652   3
   6   3   7 6.70021 3.73353   4
  -7  -3  -7 15.8359 11.1703   1
   7   3   7 2.30521 3.69181   4
   8   3   7 -6.2247 5.09766   4
  12  -4  -7 -4.0692 4.91532   1
 -12   4   7 9.43998 5.79497   2
 -12   4   7 13.3457 7.69145   3
  11  -4  -7 2.12213 5.31878   4
  11  -4  -7 2.77992 4.21918   1
 -11   4   7 -2.6537 6.43684   3
 -11   4   7 -0.0730 4.95902   2
  10  -4  -7 10.7636 3.79710   1
 -10   4   7 10.8085 5.26668   3
 -10   4   7 5.47029 4.22263   2
   9  -4  -7 37.2236 4.66360   1
  -9   4   7 42.4393 4.50362   4
  -9   4   7 43.7779 5.39207   2
  -9   4   7 52.0902 6.26439   3
   8  -4  -7 69.4400 4.48667   1
   8  -4  -7 63.7294 5.30968   2
  -8   4   7 68.3021 4.13680   4
  -8   4   7 65.4165 6.07278   3
  -8   4   7 70.0838 5.38702   2
   7  -4  -7 28.9805 2.98393   1
   7  -4  -7 38.9994 4.86788   2
  -7   4   7 37.6870 6.99163   3
  -7   4   7 32.5896 2.93601   4
   6  -4  -7 31.3701 3.96795   2
   6  -4  -7 33.8275 2.60745   1
  -6   4   7 33.1314 3.76097   3
  -6   4   7 33.6414 2.64574   4
   5  -4  -7 25.4909 3.89955   2
   5  -4  -7 25.0764 2.21870   1
  -5   4   7 25.2053 4.01497   3
  -5   4   7 22.6127 2.13759   4
   4  -4  -7 148.473 5.23278   1
   4  -4  -7 155.756 6.19606   2
  -4   4   7 147.614 4.76093   4
  -4   4   7 138.773 5.82141   3
   3  -4  -7 194.252 7.19067   2
   3  -4  -7 202.091 6.44988   1
  -3   4   7 197.249 5.89011   4
  -3   4   7 197.927 7.06620   3
   2  -4  -7 99.1855 4.51078   2
   2  -4  -7 98.9715 4.15703   1
  -2   4   7 100.054 3.58640   4
  -2   4   7 101.842 4.48236   3
   1  -4  -7 19.7108 2.46360   1
   1  -4  -7 19.6162 2.21758   2
  -1   4   7 20.9864 2.27297   3
  -1   4   7 20.0327 1.79222   4
   0  -4  -7 0.50669 1.41591   2
   0  -4  -7 3.15574 1.96437   1
   0   4   7 0.86533 1.48681   3
  -1  -4  -7 17.8005 5.59753   1
  -1  -4  -7 18.8105 2.19206   2
   1   4   7 13.9240 2.10331   3
   1   4   7 16.0029 2.19202   4
  -2  -4  -7 8.70522 4.20815   1
  -2  -4  -7 17.9483 2.21521   2
   2   4   7 15.9515 2.71831   4
   2   4   7 17.8142 2.48670   3
  -3  -4  -7 12.7129 3.86037   1
  -3  -4  -7 10.7486 2.26328   2
   3   4   7 9.30896 2.71850   4
   3   4   7 12.4943 2.55445   3
  -4  -4  -7 5.47622 4.05378   1
  -4  -4  -7 4.31082 2.58418   2
   4   4   7 2.92523 2.56897   4
   4   4   7 4.13086 2.67523   3
  -5  -4  -7 -1.5603 3.10719   2
  -5  -4  -7 -1.2902 4.79085   1
   5   4   7 -4.6987 3.52449   3
   5   4   7 1.29131 3.29013   4
  -6  -4  -7 -6.3539 6.20451   1
   6   4   7 1.62269 3.50220   4
  -7  -4  -7 -1.1823 7.98598   1
   7   4   7 1.31458 3.91566   4
  12  -5  -7 7.21284 5.09927   1
  12  -5  -7 4.40455 6.30012   2
 -12   5   7 -9.4440 7.42166   3
  11  -5  -7 1.52726 4.10124   1
  11  -5  -7 -1.2997 5.41167   2
 -11   5   7 0.46262 6.59528   3
 -11   5   7 0.68176 5.00568   4
  10  -5  -7 3.83529 3.63443   1
  10  -5  -7 5.07085 4.27970   2
 -10   5   7 2.21182 5.07479   3
   9  -5  -7 33.7995 4.76026   1
   9  -5  -7 40.1419 5.34347   2
  -9   5   7 32.5171 5.28174   3
  -9   5   7 38.1992 4.49188   4
   8  -5  -7 93.4232 6.06808   2
   8  -5  -7 82.9774 4.65781   1
  -8   5   7 80.6902 6.41061   3
  -8   5   7 78.2203 4.80951   4
   7  -5  -7 3.80367 1.92387   1
   7  -5  -7 -2.2304 2.61731   2
  -7   5   7 2.16831 2.33828   4
  -7   5   7 -1.9638 2.80155   3
   6  -5  -7 73.2770 7.76506   2
   6  -5  -7 93.7706 3.98703   1
  -6   5   7 90.2088 4.17075   4
   5  -5  -7 17.6077 2.34588   1
   5  -5  -7 19.9484 3.18479   2
  -5   5   7 23.2214 2.42922   4
  -5   5   7 18.5189 3.13925   3
   4  -5  -7 73.3179 3.32977   1
   4  -5  -7 70.8584 4.45522   2
  -4   5   7 71.5277 4.62375   3
  -4   5   7 71.2468 3.26802   4
   3  -5  -7 136.041 5.10017   1
   3  -5  -7 139.412 5.73241   2
  -3   5   7 144.546 6.21072   3
  -3   5   7 136.534 4.72108   4
   2  -5  -7 61.0805 3.62023   2
   2  -5  -7 62.5975 3.45256   1
  -2   5   7 62.0203 3.62437   3
  -2   5   7 65.4574 2.90500   4
   1  -5  -7 -1.2330 1.66853   2
   1  -5  -7 5.70292 2.13805   1
  -1   5   7 3.82395 1.53414   4
  -1   5   7 1.11707 1.79084   3
   0  -5  -7 4.54096 1.80306   2
   0  -5  -7 4.26775 2.41956   1
   0   5   7 2.29718 1.71981   4
   0   5   7 4.70039 2.00563   3
  -1  -5  -7 13.4852 3.48292   1
  -1  -5  -7 12.1390 2.11542   2
   1   5   7 10.3052 2.35744   3
   1   5   7 12.1996 2.53544   4
  -2  -5  -7 12.2354 2.43401   2
  -2  -5  -7 12.6085 3.92612   1
   2   5   7 17.0122 2.87879   3
   2   5   7 14.0069 2.80124   4
  -3  -5  -7 8.57126 4.44113   1
   3   5   7 7.04328 2.50278   3
   3   5   7 3.52911 2.78658   4
  -4  -5  -7 2.57141 3.23072   2
  -4  -5  -7 -4.0805 4.84869   1
   4   5   7 -2.7020 2.66571   4
   4   5   7 3.32976 3.03152   3
  -5  -5  -7 2.26114 4.23997   2
  -5  -5  -7 -7.0556 5.97765   1
   5   5   7 0.64436 3.27676   4
  -6  -5  -7 -1.0032 15.1102   1
   6   5   7 -0.4316 3.83438   4
  12  -6  -7 4.38287 5.45172   2
  12  -6  -7 2.76784 5.02820   1
 -12   6   7 1.12405 8.92577   3
  11  -6  -7 -3.7057 4.16245   1
  11  -6  -7 -3.0662 4.48034   2
 -11   6   7 -3.0435 6.78300   3
 -11   6   7 -3.2680 5.06087   4
  10  -6  -7 4.54996 3.49453   1
  10  -6  -7 3.79643 4.14753   2
 -10   6   7 2.10164 5.15208   3
 -10   6   7 7.52030 4.80841   4
   9  -6  -7 36.6599 5.26423   2
   9  -6  -7 34.1753 3.85270   1
  -9   6   7 37.3418 4.65128   4
  -9   6   7 35.9156 5.72533   3
   8  -6  -7 37.7530 3.29935   1
   8  -6  -7 42.2490 4.86772   2
  -8   6   7 40.3160 4.26124   4
  -8   6   7 45.4712 5.46219   3
   7  -6  -7 8.18084 3.35432   2
   7  -6  -7 19.3203 2.60360   1
  -7   6   7 14.8132 3.71726   3
  -7   6   7 19.3830 2.99915   4
   6  -6  -7 62.2322 3.28075   1
   6  -6  -7 61.1469 4.73812   2
  -6   6   7 62.2858 3.87737   4
  -6   6   7 67.4945 5.04755   3
   5  -6  -7 8.44263 2.74975   2
   5  -6  -7 9.12656 1.82800   1
  -5   6   7 10.2088 4.30312   3
  -5   6   7 10.7632 2.29117   4
   4  -6  -7 123.620 4.72545   1
   4  -6  -7 121.934 5.93912   2
  -4   6   7 117.223 5.91519   3
  -4   6   7 127.790 4.78934   4
   3  -6  -7 83.4644 4.00086   1
   3  -6  -7 86.2309 4.78371   2
  -3   6   7 77.9189 3.60683   4
  -3   6   7 72.0533 4.90143   3
   2  -6  -7 22.6269 3.03688   2
   2  -6  -7 25.6376 3.08001   1
  -2   6   7 22.9485 2.50313   4
   1  -6  -7 5.10155 2.33167   2
   1  -6  -7 7.55204 2.42655   1
  -1   6   7 3.54189 1.75850   4
   0  -6  -7 7.59855 2.22856   2
   0   6   7 4.36963 2.18023   4
   0   6   7 1.13272 2.44677   3
  -1  -6  -7 11.0074 2.61693   2
  -1  -6  -7 7.29017 4.51087   1
   1   6   7 4.12439 2.52903   3
   1   6   7 5.54486 2.44416   4
  -2  -6  -7 6.07708 3.38040   2
  -2  -6  -7 5.75745 4.17279   1
   2   6   7 4.80670 2.87811   3
   2   6   7 9.61134 2.77060   4
  -3  -6  -7 5.53631 4.84724   1
  -3  -6  -7 -0.7809 2.79055   2
   3   6   7 -0.4115 3.25052   3
   3   6   7 1.97047 2.59699   4
  -4  -6  -7 -6.8674 6.07298   1
  -4  -6  -7 -1.2806 3.66805   2
   4   6   7 -0.3050 2.90622   4
  -5  -6  -7 -5.7060 4.75498   2
  -5  -6  -7 -6.5867 7.22072   1
   5   6   7 1.36391 3.37618   4
   6   6   7 1.47701 4.18904   4
  12  -7  -7 -12.359 5.85619   2
 -12   7   7 -10.195 6.75057   4
 -12   7   7 8.45636 8.59935   3
  11  -7  -7 -2.4967 4.79729   2
 -11   7   7 -1.9698 5.25035   4
 -11   7   7 -8.7482 6.78805   3
  10  -7  -7 5.82559 3.46393   1
  10  -7  -7 2.87137 4.09177   2
 -10   7   7 13.5852 4.89588   4
 -10   7   7 -1.0044 5.16200   3
   9  -7  -7 15.7886 4.60721   2
   9  -7  -7 23.6401 3.06017   1
  -9   7   7 26.9183 5.22510   3
   8  -7  -7 18.9961 4.18000   2
   8  -7  -7 21.8788 2.85783   1
  -8   7   7 19.9073 3.76563   4
  -8   7   7 19.8732 4.39975   3
   7  -7  -7 31.3268 3.03605   1
   7  -7  -7 29.0484 4.39956   2
  -7   7   7 37.3616 4.03285   4
  -7   7   7 28.1295 4.10054   3
   6  -7  -7 1.81753 2.71365   2
   6  -7  -7 3.38728 1.83855   1
  -6   7   7 4.49834 2.62543   4
  -6   7   7 3.00210 2.87250   3
   5  -7  -7 7.66073 1.95255   1
   5  -7  -7 9.56247 2.72318   2
  -5   7   7 9.52549 3.33848   3
  -5   7   7 7.06138 2.38935   4
   4  -7  -7 23.0063 3.18322   2
   4  -7  -7 26.9408 2.94379   1
  -4   7   7 27.4872 2.83330   4
  -4   7   7 25.2560 3.66393   3
   3  -7  -7 11.6071 2.66060   2
   3  -7  -7 13.2097 2.65228   1
  -3   7   7 10.1888 2.87121   3
  -3   7   7 14.4185 2.39543   4
   2  -7  -7 12.3082 2.63963   2
   2  -7  -7 16.0070 3.00089   1
  -2   7   7 18.1252 2.81131   4
  -2   7   7 17.2179 3.36201   3
   1  -7  -7 10.0053 2.81085   2
   1  -7  -7 15.6306 3.62077   1
  -1   7   7 10.7594 3.50249   3
  -1   7   7 12.7457 4.84818   4
   0  -7  -7 2.00258 2.39610   2
   0  -7  -7 13.2447 4.13665   1
   0   7   7 1.21786 3.40520   3
   0   7   7 3.08963 2.33568   4
  -1  -7  -7 -0.7220 2.56720   2
  -1  -7  -7 4.32895 4.04339   1
   1   7   7 -0.9698 2.39873   4
  -2  -7  -7 -1.2881 5.06949   1
  -2  -7  -7 -1.9054 2.69098   2
   2   7   7 1.96752 3.63736   3
   2   7   7 1.29901 2.88024   4
  -3  -7  -7 -1.3371 3.33130   2
  -3  -7  -7 -0.7108 5.92183   1
   3   7   7 2.82258 3.11740   4
  -4  -7  -7 -0.7437 7.20632   1
  -4  -7  -7 10.1546 4.56564   2
   4   7   7 -0.3360 3.27983   4
  -5  -7  -7 -10.582 8.15281   1
   5   7   7 -0.0036 3.88410   4
  12  -8  -7 4.68066 5.86552   2
 -12   8   7 -2.3834 8.59343   3
 -12   8   7 4.60244 7.43832   4
  11  -8  -7 -0.1269 4.82857   2
 -11   8   7 6.40257 5.73014   4
 -11   8   7 -5.1386 6.70871   3
  10  -8  -7 5.08839 3.91788   2
 -10   8   7 7.38911 5.07790   3
 -10   8   7 -4.1602 4.98959   4
   9  -8  -7 10.7922 4.14779   2
  -9   8   7 8.00570 4.69809   4
  -9   8   7 15.3029 4.81639   3
   8  -8  -7 33.2520 4.84558   2
  -8   8   7 34.1654 5.39202   3
  -8   8   7 28.6595 4.89386   4
   7  -8  -7 14.1637 3.83533   2
  -7   8   7 18.3635 4.12716   3
   6  -8  -7 7.10948 2.04273   1
   6  -8  -7 10.3938 3.36792   2
  -6   8   7 3.69500 3.79382   3
  -6   8   7 6.25516 3.27168   4
   5  -8  -7 2.58026 2.22051   1
   5  -8  -7 -0.3152 2.61997   2
  -5   8   7 3.69118 3.20848   3
   4  -8  -7 3.40256 2.48898   1
   4  -8  -7 -0.5502 2.47726   2
  -4   8   7 2.75507 2.67378   4
  -4   8   7 -0.1461 2.91363   3
   3  -8  -7 25.1415 3.35409   1
   3  -8  -7 22.3191 3.59549   2
  -3   8   7 23.5420 3.17557   4
  -3   8   7 17.5243 4.27771   3
   2  -8  -7 13.8872 3.00593   2
   2  -8  -7 16.7182 3.55982   1
  -2   8   7 12.6975 2.82502   4
   1  -8  -7 -0.5639 2.53808   2
  -1   8   7 0.60145 3.50783   3
  -1   8   7 0.87448 2.38984   4
   0  -8  -7 1.98266 2.55292   2
   0  -8  -7 -2.1954 4.21359   1
   0   8   7 -1.9407 2.87982   4
   0   8   7 1.73467 3.61736   3
  -1  -8  -7 4.49593 3.06080   2
  -1  -8  -7 -2.3444 5.30628   1
   1   8   7 -0.9217 2.92311   4
   1   8   7 1.02188 4.08608   3
  -2  -8  -7 6.50413 3.60900   2
  -2  -8  -7 13.0819 6.25295   1
   2   8   7 -1.1031 3.38417   4
  -3  -8  -7 4.47666 3.84088   2
  -3  -8  -7 11.0011 7.22923   1
   3   8   7 -4.6527 3.82409   4
  -4  -8  -7 0.68943 5.19264   2
  -4  -8  -7 8.28059 9.94797   1
   4   8   7 -6.0867 3.99438   4
  12  -9  -7 1.73221 6.07608   2
 -12   9   7 6.25672 7.18200   4
 -12   9   7 -0.5559 9.20064   3
  11  -9  -7 -5.7847 5.12160   2
 -11   9   7 6.56044 6.55610   4
  10  -9  -7 5.61659 4.33898   2
 -10   9   7 -1.7257 5.22015   3
 -10   9   7 1.84060 5.54458   4
   9  -9  -7 0.77819 4.09551   2
  -9   9   7 11.7592 5.19720   3
  -9   9   7 6.86289 4.72235   4
   8  -9  -7 19.5591 3.83001   2
  -8   9   7 17.7557 4.14000   3
  -8   9   7 14.6743 4.45539   4
   7  -9  -7 10.1014 3.37506   2
  -7   9   7 11.3723 4.86531   4
  -7   9   7 8.43852 4.48806   3
   6  -9  -7 3.75253 3.18119   2
  -6   9   7 5.79724 3.96176   3
  -6   9   7 -1.3250 3.88566   4
   5  -9  -7 -2.2786 2.70765   2
  -5   9   7 -2.9340 3.12762   4
  -5   9   7 -7.5222 3.50744   3
   4  -9  -7 10.5853 3.17944   1
   4  -9  -7 7.58636 3.18256   2
  -4   9   7 10.8301 3.43952   4
  -4   9   7 9.15972 4.18140   3
   3  -9  -7 6.56675 2.57530   2
   3  -9  -7 6.26677 3.26146   1
  -3   9   7 13.2193 3.06324   4
  -3   9   7 11.2960 4.27103   3
   2  -9  -7 2.73572 3.69302   1
   2  -9  -7 4.30754 2.63924   2
  -2   9   7 5.19868 3.94229   3
  -2   9   7 2.11108 2.91509   4
   1  -9  -7 -1.9606 2.52893   2
   1  -9  -7 -2.2192 4.48244   1
  -1   9   7 -1.5717 4.22457   3
  -1   9   7 5.69067 2.83857   4
   0  -9  -7 -1.9105 4.99495   1
   0  -9  -7 -1.2090 2.91500   2
   0   9   7 -11.794 8.54520   3
   0   9   7 -2.4290 2.73613   4
  -1  -9  -7 -1.0078 3.43909   2
  -1  -9  -7 7.63979 6.19268   1
   1   9   7 2.10716 3.33776   4
  -2  -9  -7 -7.0610 7.27643   1
  -2  -9  -7 -1.3624 4.10723   2
   2   9   7 -3.0237 3.52015   4
  -3  -9  -7 1.20689 4.64700   2
  -3  -9  -7 -8.8475 8.56875   1
   3   9   7 6.04947 4.39007   4
  11 -10  -7 2.00882 7.75288   2
 -11  10   7 -2.6071 7.20681   3
 -11  10   7 11.0290 7.04485   4
  10 -10  -7 5.83084 4.74727   2
 -10  10   7 11.8690 5.69043   4
 -10  10   7 2.93004 6.58540   3
   9 -10  -7 9.16215 3.66193   2
  -9  10   7 -5.9740 5.09722   4
  -9  10   7 3.91249 4.64364   3
   8 -10  -7 3.00237 3.44144   2
  -8  10   7 2.87855 4.43245   3
  -8  10   7 14.0867 4.85831   4
   7 -10  -7 1.29234 2.85697   2
  -7  10   7 5.71253 4.01371   3
  -7  10   7 6.49531 4.64089   4
   6 -10  -7 1.95961 3.50619   2
  -6  10   7 1.06698 3.99784   3
  -6  10   7 7.57848 4.17465   4
   5 -10  -7 -0.5825 3.21091   2
  -5  10   7 -4.1918 3.80425   4
  -5  10   7 13.0661 4.77573   3
   4 -10  -7 3.88083 3.11575   2
  -4  10   7 4.71690 3.22794   4
  -4  10   7 -0.9554 4.65722   3
   3 -10  -7 4.89996 3.09730   2
  -3  10   7 -7.7804 4.43777   3
  -3  10   7 7.97686 3.29900   4
   2 -10  -7 3.96953 5.00357   1
   2 -10  -7 2.29062 2.81053   2
  -2  10   7 3.05674 3.39488   4
  -2  10   7 -10.470 5.11317   3
   1 -10  -7 1.84230 3.08929   2
   1 -10  -7 3.10615 5.70599   1
  -1  10   7 -0.5420 3.17905   4
  -1  10   7 0.99376 5.24887   3
   0 -10  -7 3.20543 3.66483   2
   0 -10  -7 -5.2782 5.85384   1
   0  10   7 -0.0038 3.69999   4
  -1 -10  -7 2.20960 4.07757   2
  -1 -10  -7 -9.0352 7.52186   1
   1  10   7 -0.4232 5.75461   4
  -2 -10  -7 -0.8077 4.67631   2
   2  10   7 4.50905 4.41309   4
  11 -11  -7 1.52477 5.30116   2
 -11  11   7 10.2462 7.28184   4
  10 -11  -7 4.02736 4.54456   2
 -10  11   7 -6.8993 6.31798   3
 -10  11   7 2.28845 6.23719   4
   9 -11  -7 0.16847 3.96238   2
  -9  11   7 3.85774 6.11637   4
  -9  11   7 -1.9878 5.61709   3
   8 -11  -7 6.87428 3.97105   2
  -8  11   7 3.01053 4.91002   3
  -8  11   7 -1.4282 5.51967   4
   7 -11  -7 -0.8680 3.53781   2
  -7  11   7 3.02879 5.11277   3
  -7  11   7 4.31456 5.09875   4
   6 -11  -7 -0.2989 3.41953   2
  -6  11   7 5.21976 4.94567   3
  -6  11   7 3.31319 4.78189   4
   5 -11  -7 -0.3563 3.48630   2
  -5  11   7 -4.9036 4.32015   4
  -5  11   7 4.17975 5.11603   3
   4 -11  -7 0.53105 2.95743   2
  -4  11   7 -0.7004 4.08990   4
  -4  11   7 -8.1135 5.08862   3
   3 -11  -7 -3.3297 3.17493   2
  -3  11   7 -3.7263 5.45998   3
  -3  11   7 4.02885 3.90036   4
   2 -11  -7 4.38827 3.68285   2
  -2  11   7 -1.7781 5.56433   3
  -2  11   7 4.42095 3.76779   4
   1 -11  -7 -0.3963 3.54234   2
  -1  11   7 -1.5236 3.82486   4
   0  11   7 -3.0732 4.27718   4
   9 -12  -7 -1.8226 4.40689   2
  -9  12   7 19.5755 6.83495   4
  -9  12   7 -4.0954 5.34710   3
   8 -12  -7 -2.3903 4.19161   2
  -8  12   7 4.82306 6.13526   4
   7 -12  -7 -1.3605 3.69950   2
  -7  12   7 11.6827 5.40853   3
  -7  12   7 -2.2641 5.09922   4
  -6  12   7 -3.1793 5.59701   3
  -6  12   7 0.10034 5.74691   4
  -5  12   7 -8.0001 4.66109   4
  -5  12   7 5.96852 6.01905   3
   4 -12  -7 -10.279 6.66165   2
  -4  12   7 -5.3045 6.09050   3
  -4  12   7 2.10840 4.93905   4
   3 -12  -7 -2.1566 3.53500   2
  -3  12   7 10.1485 6.20001   3
  -3  12   7 1.20431 4.22633   4
   2 -12  -7 2.53080 4.04835   2
  -2  12   7 10.2492 5.71680   4
   7 -13  -7 0.54701 4.40056   2
  -7  13   7 -9.3020 6.13517   4
  -7  13   7 0.43762 6.92494   3
   6 -13  -7 2.70805 3.69679   2
  -6  13   7 -10.804 6.41942   3
  -6  13   7 -0.8979 6.41763   4
   5 -13  -7 -4.7607 3.90820   2
  -5  13   7 -2.6035 7.01397   3
   0  12  -8 6.22721 5.85127   4
   0  12  -8 3.52790 6.32999   1
   0 -12   8 6.48638 5.86190   2
  -1  12  -8 3.50236 5.46260   1
  -1  12  -8 -7.9029 5.23056   4
   1 -12   8 -1.1297 5.12580   2
  -2  12  -8 4.61832 6.65642   1
  -2  12  -8 -0.0915 5.43377   4
   2 -12   8 -3.3624 5.51199   2
  -3  12  -8 -3.3737 5.46017   4
   3 -12   8 -6.1632 4.79503   3
   3 -12   8 5.87841 5.69802   2
  -4  12  -8 15.5090 6.51224   4
   4 -12   8 9.40483 5.52900   2
   4 -12   8 15.6464 4.92109   3
  -5  12  -8 -15.414 10.8665   4
   5 -12   8 9.03053 5.97202   2
   5 -12   8 1.49167 4.43485   3
  -6  12  -8 -1.4648 6.88012   4
   6 -12   8 -1.0646 4.18572   3
   2  11  -8 -3.3230 6.11239   1
   2  11  -8 0.68323 5.61042   4
  -2 -11   8 -4.0242 5.19492   2
   1  11  -8 -3.1640 5.84492   1
   1  11  -8 6.75620 5.31740   4
  -1 -11   8 1.17369 4.80964   2
   0  11  -8 2.97757 5.02158   1
   0  11  -8 2.45142 5.02740   4
   0 -11   8 3.81291 4.87879   2
  -1  11  -8 5.30481 4.61555   4
  -1  11  -8 -1.8971 4.43464   1
   1 -11   8 -1.1681 3.95456   3
   1 -11   8 -5.1821 4.25024   2
  -2  11  -8 6.18196 5.41219   4
  -2  11  -8 3.91820 4.79478   1
   2 -11   8 -2.7248 3.98230   3
   2 -11   8 -3.5853 4.59191   2
  -3  11  -8 1.59618 5.58034   4
  -3  11  -8 1.19679 4.42835   1
   3 -11   8 -8.7658 3.95182   3
   3 -11   8 0.87128 4.59691   2
  -4  11  -8 -2.6409 4.39477   1
  -4  11  -8 0.12404 5.67701   4
   4 -11   8 8.45988 4.78731   2
   4 -11   8 2.60105 3.88723   3
  -5  11  -8 0.35567 5.75558   4
   5 -11   8 -3.5368 3.52819   3
   5 -11   8 7.40436 4.95224   2
  -6  11  -8 9.88271 6.01224   4
   6 -11   8 -3.0550 3.70209   3
  -7  11  -8 0.93612 6.42331   4
   7 -11   8 0.23371 3.90696   3
  -8  11  -8 7.31740 7.02191   4
   8 -11   8 5.04899 4.42122   3
   4  10  -8 0.51107 11.7008   1
   4  10  -8 -1.4562 4.77743   4
  -4 -10   8 2.07392 5.52165   2
   3  10  -8 3.47757 5.71372   1
   3  10  -8 1.64237 4.43738   4
  -3 -10   8 1.01712 4.67172   2
   2  10  -8 -2.1917 4.31195   4
   2  10  -8 -1.9520 4.50029   1
  -2 -10   8 -10.129 3.97083   2
   1  10  -8 2.92138 4.35996   4
   1  10  -8 -0.1605 4.21028   1
  -1 -10   8 0.13502 4.34088   2
   0  10  -8 3.20296 3.92503   4
   0  10  -8 -3.3422 4.20869   1
   0 -10   8 3.80637 3.54993   3
   0 -10   8 -0.8795 4.25488   2
  -1  10  -8 -0.5935 3.57798   1
  -1  10  -8 1.91356 4.14450   4
   1 -10   8 -5.9799 3.43307   3
   1 -10   8 -4.7472 3.72140   2
  -2  10  -8 0.21071 4.05474   4
  -2  10  -8 -0.3438 4.02148   1
   2 -10   8 -0.6345 3.23843   3
   2 -10   8 -2.2199 3.96550   2
  -3  10  -8 7.73578 4.01562   1
  -3  10  -8 3.78504 4.49974   4
   3 -10   8 2.50846 4.25223   2
   3 -10   8 0.60468 3.32554   3
  -4  10  -8 5.09909 5.20212   4
  -4  10  -8 0.57494 4.04950   1
   4 -10   8 11.2776 4.50334   2
   4 -10   8 2.50437 3.29234   3
  -5  10  -8 -3.1449 4.96727   4
  -5  10  -8 2.26086 4.48019   1
   5 -10   8 -3.2177 3.36241   3
   5 -10   8 7.06469 4.55456   2
  -6  10  -8 11.2266 5.30435   4
  -6  10  -8 0.04599 5.59804   1
   6 -10   8 -3.2801 3.00262   3
  -7  10  -8 7.70190 6.19538   1
  -7  10  -8 1.60461 5.41193   4
   7 -10   8 2.55417 3.84052   3
  -8  10  -8 -5.9702 5.52528   4
   8 -10   8 3.73928 4.00484   3
   5   9  -8 14.5967 5.06399   4
   5   9  -8 -5.2604 5.48585   1
  -5  -9   8 2.10391 4.97059   2
   4   9  -8 -0.3758 4.17098   4
   4   9  -8 4.34042 4.76523   1
   3   9  -8 1.62574 3.82002   4
   3   9  -8 6.63111 4.89266   1
  -3  -9   8 1.10141 4.66221   2
   2   9  -8 -1.6717 3.45939   4
   2   9  -8 4.87171 4.05356   1
  -2  -9   8 -2.8374 3.90705   2
   1   9  -8 2.00594 3.60115   1
   1   9  -8 6.67979 3.80585   4
  -1  -9   8 3.40269 3.72552   2
   0   9  -8 2.77716 3.67870   4
   0   9  -8 -1.4077 3.44546   1
   0  -9   8 3.42229 3.03988   3
   0  -9   8 4.47259 3.60607   2
  -1   9  -8 -1.2662 3.71286   4
  -1   9  -8 3.61809 3.51396   1
   1  -9   8 -3.7187 2.96401   3
   1  -9   8 4.70666 3.88389   2
  -2   9  -8 2.66261 4.23140   4
  -2   9  -8 1.67624 3.49029   1
   2  -9   8 3.35577 2.81651   3
   2  -9   8 3.45470 3.62657   2
  -3   9  -8 4.55981 4.33631   4
  -3   9  -8 1.37622 3.71736   1
   3  -9   8 1.17821 3.65006   2
   3  -9   8 5.32185 2.92628   3
  -4   9  -8 3.54796 3.74265   1
  -4   9  -8 -8.6854 4.46371   4
   4  -9   8 -1.7824 4.50245   2
   4  -9   8 3.56928 2.94300   3
  -5   9  -8 3.21313 4.31396   4
  -5   9  -8 2.26449 4.12462   1
   5  -9   8 -1.0710 3.04646   3
   5  -9   8 2.37234 3.51244   2
  -6   9  -8 0.19603 5.22257   1
  -6   9  -8 -2.3709 4.54913   4
   6  -9   8 -1.2610 2.90931   3
  -7   9  -8 -1.3633 5.03006   4
  -7   9  -8 24.0781 6.19032   1
   7  -9   8 0.81821 3.09581   3
  -8   9  -8 4.46109 5.68938   4
  -8   9  -8 2.43800 6.90400   1
   8  -9   8 -0.4215 5.05074   3
  -9   9  -8 -7.4469 7.91441   1
  -9   9  -8 -0.3749 6.28989   4
   9  -9   8 0.29556 3.93156   3
   6   8  -8 7.05328 4.39880   4
   6   8  -8 1.26866 5.42625   1
  -6  -8   8 4.23960 5.45568   2
   5   8  -8 5.25519 3.94831   4
   5   8  -8 -0.8852 4.79972   1
  -5  -8   8 -0.7527 4.89447   2
   4   8  -8 4.67472 3.60449   4
   4   8  -8 -2.1330 4.36525   1
  -4  -8   8 3.24103 3.93182   2
   3   8  -8 -0.0858 3.56813   1
   3   8  -8 8.43539 3.29786   4
  -3  -8   8 -1.6093 4.14410   2
   2   8  -8 7.19424 3.25037   4
   2   8  -8 19.3476 4.45061   1
  -2  -8   8 1.53131 3.68432   2
  -2  -8   8 4.64852 2.82293   3
   1   8  -8 1.25280 3.18224   1
   1   8  -8 10.1988 3.66543   4
  -1  -8   8 3.31047 3.53554   2
  -1  -8   8 5.08811 2.71295   3
   0   8  -8 5.62975 3.38538   1
   0   8  -8 2.95792 3.96154   4
   0  -8   8 0.32815 3.32570   2
   0  -8   8 0.15818 2.41588   3
  -1   8  -8 -0.8721 3.27825   4
  -1   8  -8 0.51950 2.93458   1
   1  -8   8 0.28076 3.41776   2
   1  -8   8 -4.0155 2.37252   3
  -2   8  -8 4.41293 3.71815   1
  -2   8  -8 11.2485 3.81473   4
   2  -8   8 9.47925 3.28429   2
   2  -8   8 11.5931 2.63491   3
  -3   8  -8 1.68914 3.97357   4
  -3   8  -8 6.25582 3.37622   1
   3  -8   8 1.32470 2.77146   2
   3  -8   8 4.01361 2.57337   3
  -4   8  -8 -1.5503 3.69394   4
   4  -8   8 5.13995 2.73672   3
   4  -8   8 3.13726 3.05564   2
  -5   8  -8 -2.1353 4.08290   4
  -5   8  -8 1.66101 3.46985   1
   5  -8   8 -1.6487 2.44499   3
   5  -8   8 2.20373 3.16462   2
  -6   8  -8 -1.2572 4.49023   4
  -6   8  -8 5.75761 4.81078   1
   6  -8   8 -1.2702 2.57256   3
  -7   8  -8 14.1391 5.48335   1
  -7   8  -8 5.13162 4.76849   4
   7  -8   8 -1.9687 2.94942   3
  -8   8  -8 5.40430 6.67631   1
  -8   8  -8 4.00097 5.61359   4
   8  -8   8 1.39484 3.65767   3
  -9   8  -8 0.64441 5.29580   4
  -9   8  -8 1.17591 7.01883   1
   9  -8   8 -6.0656 3.79630   3
   7   7  -8 -3.8013 4.01320   4
   7   7  -8 1.64148 5.00627   1
  -7  -7   8 0.33172 4.96244   2
   6   7  -8 0.61572 3.66867   4
   6   7  -8 3.96600 4.51169   1
  -6  -7   8 4.12206 4.85773   2
   5   7  -8 -1.8541 2.93797   4
   5   7  -8 -3.0456 3.84353   1
  -5  -7   8 6.69638 4.37476   2
   4   7  -8 6.66681 3.22696   4
   4   7  -8 -0.7907 3.50161   1
  -4  -7   8 1.86227 3.75343   2
   3   7  -8 4.19069 2.82110   4
   3   7  -8 1.66387 3.00870   1
  -3  -7   8 7.02296 2.64339   3
  -3  -7   8 7.19745 3.42054   2
   2   7  -8 12.7107 3.30660   4
   2   7  -8 10.6801 3.19738   1
  -2  -7   8 13.8627 2.69333   3
  -2  -7   8 10.8544 3.57005   2
   1   7  -8 6.19727 3.01151   1
  -1  -7   8 3.61029 3.25548   2
   0   7  -8 -2.0945 4.60054   1
   0  -7   8 0.19216 3.25242   2
   0  -7   8 1.58287 2.29080   3
  -1   7  -8 -0.6051 2.98936   4
  -1   7  -8 -1.2889 2.67610   1
   1  -7   8 -3.9308 2.13509   3
   1  -7   8 -0.7911 3.30099   2
  -2   7  -8 10.0105 2.70565   1
  -2   7  -8 10.1216 3.65633   4
   2  -7   8 3.25625 3.06274   2
   2  -7   8 10.4298 2.47172   3
  -3   7  -8 9.17273 4.01815   4
  -3   7  -8 9.98526 3.08475   1
   3  -7   8 4.96620 2.56823   3
   3  -7   8 7.46014 2.77913   2
  -4   7  -8 4.63566 3.52855   4
  -4   7  -8 0.77277 2.91270   1
   4  -7   8 12.8923 2.67051   2
   4  -7   8 7.12516 2.34324   3
  -5   7  -8 5.78717 4.13369   4
  -5   7  -8 -0.6806 3.42196   1
   5  -7   8 0.79148 2.42813   3
  -6   7  -8 4.88083 4.31238   4
  -6   7  -8 -4.5124 4.17009   1
   6  -7   8 -3.2066 2.77298   3
  -7   7  -8 2.85363 4.56296   4
  -7   7  -8 3.88483 5.25683   1
   7  -7   8 -4.0348 2.62212   3
  -8   7  -8 3.17305 5.71834   1
  -8   7  -8 -2.3148 4.71279   4
   8  -7   8 -2.7687 3.24345   3
  -9   7  -8 2.23250 6.99406   4
  -9   7  -8 -0.5131 7.07609   1
   9  -7   8 0.79900 5.71716   3
   8   6  -8 -6.2590 5.40213   1
  -8  -6   8 1.03067 5.17795   2
   7   6  -8 1.01082 3.34157   4
   7   6  -8 4.53936 4.97811   1
  -7  -6   8 -0.3116 5.14463   2
   6   6  -8 -0.9350 3.87260   1
   6   6  -8 -4.2703 2.98969   4
  -6  -6   8 5.09496 3.92033   2
   5   6  -8 -1.6350 2.74045   4
   5   6  -8 -4.2496 3.20631   1
  -5  -6   8 -2.0477 3.42585   2
   4   6  -8 -0.4780 3.14209   1
   4   6  -8 -2.9603 4.76224   4
  -4  -6   8 -0.3479 2.35985   3
  -4  -6   8 1.83318 3.19619   2
   3   6  -8 13.9426 3.29181   1
   3   6  -8 13.0618 2.55871   4
  -3  -6   8 13.3178 2.56745   3
  -3  -6   8 12.5420 3.50141   2
   2   6  -8 13.1118 2.57338   4
   2   6  -8 12.2423 3.04623   1
  -2  -6   8 14.4036 2.32225   3
  -2  -6   8 12.7898 3.26768   2
   1   6  -8 15.0761 2.69765   4
  -1  -6   8 16.5472 2.38397   3
  -1  -6   8 13.7262 3.09956   2
   0   6  -8 0.95639 2.20163   1
   0   6  -8 4.91758 2.51183   4
   0  -6   8 8.96968 3.09990   2
  -1   6  -8 0.73231 2.18119   4
  -1   6  -8 -0.7903 2.09440   1
   1  -6   8 1.41142 1.81320   3
   1  -6   8 -2.1913 2.42291   2
  -2   6  -8 13.5044 2.74120   4
  -2   6  -8 10.6950 2.72327   1
  -3   6  -8 23.5852 3.78402   4
  -3   6  -8 19.3946 3.16435   1
   3  -6   8 20.2511 2.75430   2
   3  -6   8 17.0259 2.67582   3
  -4   6  -8 8.35414 3.55982   4
  -4   6  -8 10.5547 2.91934   1
   4  -6   8 6.50412 2.35070   2
   4  -6   8 9.19960 2.57643   3
  -5   6  -8 4.99429 3.11251   1
  -5   6  -8 3.22371 3.65895   4
   5  -6   8 5.55107 2.35541   3
  -6   6  -8 3.15868 4.06203   4
  -6   6  -8 -3.4190 3.96713   1
   6  -6   8 -0.5955 2.69375   3
  -7   6  -8 -0.5850 4.74181   1
  -7   6  -8 -0.7669 4.12851   4
   7  -6   8 3.08078 3.15286   3
  -8   6  -8 2.01280 5.23130   1
  -8   6  -8 3.82458 5.40114   4
   8  -6   8 1.21839 3.11450   3
  -9   6  -8 4.55256 6.63836   1
   9  -6   8 -0.2001 3.94188   3
   8   5  -8 4.68404 3.68269   4
   8   5  -8 3.03634 5.04266   1
   7   5  -8 2.28849 4.15529   1
   7   5  -8 3.63088 2.93554   4
  -7  -5   8 9.52557 4.43282   2
   6   5  -8 10.3034 3.04170   4
   6   5  -8 9.71818 3.78827   1
  -6  -5   8 7.30986 4.45743   2
   5   5  -8 4.88752 2.19388   4
   5   5  -8 2.30916 3.37122   1
  -5  -5   8 3.28651 2.37603   3
  -5  -5   8 3.65920 3.15949   2
   4   5  -8 14.1983 2.58564   4
   4   5  -8 16.0631 3.52146   1
  -4  -5   8 21.3910 2.55030   3
  -4  -5   8 16.4999 3.35780   2
   3   5  -8 12.0225 3.04458   1
   3   5  -8 19.4037 2.55274   4
  -3  -5   8 17.2028 3.56755   2
  -3  -5   8 12.7433 2.24628   3
   2   5  -8 43.2392 3.22612   4
  -2  -5   8 41.3388 3.87630   2
  -2  -5   8 49.5217 3.16395   3
   1   5  -8 51.7974 3.34152   4
   1   5  -8 55.2905 4.08915   1
  -1  -5   8 48.3083 2.94708   3
  -1  -5   8 50.4941 3.82372   2
   0   5  -8 28.8495 3.05193   1
   0   5  -8 28.0046 2.99042   4
   0  -5   8 30.4452 3.02999   2
   0  -5   8 31.8903 2.53292   3
  -1   5  -8 5.39621 2.09307   4
   1  -5   8 0.88884 2.17179   2
   1  -5   8 0.83296 1.71702   3
  -2   5  -8 18.4016 3.21742   1
  -2   5  -8 22.6528 3.35572   4
   2  -5   8 21.8302 2.62818   3
   2  -5   8 25.4893 2.81771   2
  -3   5  -8 26.5490 3.21947   1
   3  -5   8 20.7743 2.86334   3
   3  -5   8 21.5721 2.51085   2
  -4   5  -8 25.1396 4.09995   4
  -4   5  -8 13.5610 3.21767   1
   4  -5   8 11.6140 2.56799   3
   4  -5   8 15.1405 1.92460   2
  -5   5  -8 1.35287 3.56130   4
  -5   5  -8 1.69431 3.39498   1
   5  -5   8 2.18640 2.11029   3
  -6   5  -8 1.12652 3.85232   4
  -6   5  -8 -1.4789 3.90452   1
   6  -5   8 0.19530 2.57327   3
  -7   5  -8 -4.8432 4.22037   4
  -7   5  -8 4.43397 4.54052   1
   7  -5   8 -0.8276 2.83294   3
  -8   5  -8 -5.6710 4.34774   4
  -8   5  -8 -8.2161 5.18327   1
   8  -5   8 -1.9608 3.29814   3
  -9   5  -8 -5.4540 6.92200   4
  -9   5  -8 5.28713 6.91132   1
   9  -5   8 -6.4230 3.68864   3
   9   4  -8 -3.9450 4.83889   1
  -9  -4   8 9.83924 6.48424   2
   8   4  -8 5.44303 3.21774   4
   8   4  -8 2.97972 4.66169   1
  -8  -4   8 7.71349 4.95543   2
   7   4  -8 11.1154 2.84940   4
   7   4  -8 15.4646 4.22831   1
  -7  -4   8 16.2880 4.79859   2
   6   4  -8 8.56348 3.19583   1
   6   4  -8 12.4656 2.25386   4
  -6  -4   8 14.6172 3.04899   3
  -6  -4   8 10.2426 3.78032   2
   5   4  -8 4.53313 1.85612   4
   5   4  -8 3.37893 3.06808   1
  -5  -4   8 8.55657 3.54326   2
  -5  -4   8 3.77146 2.39609   3
   4   4  -8 61.6674 3.37836   4
   4   4  -8 69.2920 5.01984   1
  -4  -4   8 67.2747 4.97222   2
  -4  -4   8 67.3234 3.89794   3
   3   4  -8 0.94003 1.61394   4
   3   4  -8 0.44875 2.50320   1
  -3  -4   8 -1.4547 2.28462   2
  -3  -4   8 -3.8407 1.66038   3
   2   4  -8 117.031 4.49599   4
   2   4  -8 121.056 5.65328   1
  -2  -4   8 107.377 6.06156   2
  -2  -4   8 125.571 4.72262   3
   1   4  -8 97.4076 4.07205   4
   1   4  -8 81.8691 5.23977   1
  -1  -4   8 101.128 4.05398   3
  -1  -4   8 98.0426 4.77277   2
   0   4  -8 39.1544 3.09534   1
   0   4  -8 34.3873 2.87551   4
   0  -4   8 37.3494 2.48096   3
   0  -4   8 38.2428 3.05701   2
  -1   4  -8 0.15641 1.46547   1
  -1   4  -8 -2.1645 1.75236   4
   1  -4   8 -1.2849 1.78960   2
  -2   4  -8 41.1390 3.38849   4
   2  -4   8 41.0928 2.85423   2
   2  -4   8 39.6352 3.00039   3
  -3   4  -8 9.83424 2.67928   1
  -3   4  -8 11.0354 1.57414   2
  -3   4  -8 16.2308 2.78151   4
   3  -4   8 14.7503 1.87050   2
  -4   4  -8 28.9386 4.00264   4
   4  -4   8 30.6526 3.17037   3
  -5   4  -8 5.55474 3.39015   1
  -5   4  -8 2.67499 3.47438   4
   5  -4   8 4.85437 2.38925   3
  -6   4  -8 2.67226 3.68193   1
  -6   4  -8 -2.5398 3.48598   4
   6  -4   8 2.13042 2.22222   3
  -7   4  -8 -1.6781 4.11125   1
  -7   4  -8 0.08996 4.23488   4
   7  -4   8 5.05399 2.76555   3
  -8   4  -8 -6.0593 4.67321   4
  -8   4  -8 -4.3899 4.82249   1
   8  -4   8 1.18934 3.07692   3
  -9   4  -8 3.58148 6.50217   1
   9  -4   8 -1.3776 3.94727   3
  10   3  -8 -10.724 4.97408   1
 -10  -3   8 4.52501 6.92022   2
   9   3  -8 0.42350 4.61187   1
  -9  -3   8 1.82361 5.78401   2
   8   3  -8 9.58110 3.00800   4
   8   3  -8 3.55909 4.11778   1
  -8  -3   8 10.1584 4.75253   2
   7   3  -8 21.7918 2.62518   4
   7   3  -8 23.7072 4.52328   1
  -7  -3   8 20.9700 3.65762   3
  -7  -3   8 18.1055 4.21569   2
   6   3  -8 27.0288 2.45377   4
   6   3  -8 25.5493 4.37111   1
  -6  -3   8 27.2979 3.42956   3
  -6  -3   8 21.5998 4.35842   2
   5   3  -8 14.0806 1.89540   4
   5   3  -8 11.1724 3.31613   1
  -5  -3   8 15.6891 3.49465   2
  -5  -3   8 10.9981 2.59124   3
   4   3  -8 2.00104 1.37623   4
   4   3  -8 1.80818 2.41162   1
  -4  -3   8 7.82296 5.63540   2
  -4  -3   8 3.69170 1.80426   3
   3   3  -8 8.37402 1.59724   4
   3   3  -8 5.82826 2.59987   1
  -3  -3   8 4.67555 2.53107   2
  -3  -3   8 5.46238 1.77551   3
   2   3  -8 131.898 4.58710   4
  -2  -3   8 135.582 5.70402   2
  -2  -3   8 138.900 5.09003   3
   1   3  -8 145.427 5.80487   1
   1   3  -8 155.494 5.25019   4
  -1  -3   8 160.383 5.50949   3
  -1  -3   8 163.909 6.14501   2
   0   3  -8 52.9631 2.93470   4
   0   3  -8 50.6120 3.07737   1
   0  -3   8 53.4543 3.30237   2
   0  -3   8 52.0218 2.66806   3
  -1   3  -8 3.25773 1.35563   1
  -1   3  -8 2.86431 1.71305   4
   1  -3   8 2.17531 1.29165   3
   1  -3   8 -1.4794 1.59883   2
  -2   3  -8 23.5206 2.91950   4
   2  -3   8 18.5279 2.26682   3
   2  -3   8 20.8784 2.21351   2
  -3   3  -8 9.73077 2.34605   4
  -3   3  -8 13.2196 2.72442   1
  -3   3  -8 10.1443 1.20657   2
   3  -3   8 7.67174 1.98164   3
  -4   3  -8 30.4486 4.41393   1
  -4   3  -8 31.6892 4.31355   4
   4  -3   8 25.1228 2.86973   3
  -5   3  -8 4.24097 3.26360   1
  -5   3  -8 -0.5741 3.21611   4
   5  -3   8 2.83655 2.03590   3
  -6   3  -8 0.78721 3.51388   1
  -6   3  -8 -1.6011 3.55027   4
   6  -3   8 3.21001 2.36048   3
  -7   3  -8 9.71973 4.47878   4
  -7   3  -8 -3.2161 4.04855   1
   7  -3   8 0.77011 2.47480   3
  -8   3  -8 -4.4447 4.72667   1
  -8   3  -8 2.40631 4.33165   4
   8  -3   8 -0.3001 3.33639   3
  -9   3  -8 -0.4563 6.59392   1
   9  -3   8 12.0514 5.31861   4
   9  -3   8 -1.6876 3.55482   3
  10   2  -8 -3.1139 4.69375   1
   9   2  -8 -6.9275 4.21264   1
  -9  -2   8 -2.4647 4.25269   2
   8   2  -8 10.0846 4.22061   1
   8   2  -8 13.1376 2.65032   4
  -8  -2   8 12.5294 3.72745   3
  -8  -2   8 12.7394 4.43543   2
   7   2  -8 37.9342 2.91971   4
   7   2  -8 45.1187 4.96326   1
  -7  -2   8 41.6501 4.41352   3
  -7  -2   8 43.5643 5.59477   2
   6   2  -8 56.8876 4.88550   1
   6   2  -8 62.6361 2.85116   4
  -6  -2   8 63.8779 4.54959   3
  -6  -2   8 59.3368 4.96526   2
   5   2  -8 17.3730 3.48825   1
   5   2  -8 21.9759 1.79379   4
  -5  -2   8 22.8314 2.90895   3
  -5  -2   8 27.4043 4.03024   2
   4   2  -8 -1.2789 1.98835   1
   4   2  -8 0.88090 1.06731   4
  -4  -2   8 2.42756 2.57790   2
  -4  -2   8 -1.5542 1.65457   3
   3   2  -8 41.7232 2.01866   4
  -3  -2   8 43.1931 1.99524   4
  -3  -2   8 39.1779 3.34378   2
  -3  -2   8 40.6048 2.69561   3
   2   2  -8 132.683 5.22823   1
   2   2  -8 123.054 3.95816   4
  -2  -2   8 127.528 4.73490   3
  -2  -2   8 117.462 5.19640   2
  -2  -2   8 111.800 3.57692   4
   1   2  -8 224.109 7.64874   1
   1   2  -8 233.604 6.84016   4
  -1  -2   8 233.269 7.79156   2
  -1  -2   8 231.212 7.30535   3
   0   2  -8 89.0316 4.13216   1
   0   2  -8 99.1003 3.84827   4
   0  -2   8 91.2266 4.15108   2
   0  -2   8 96.0648 3.76968   3
  -1   2  -8 0.92091 1.66585   4
  -1   2  -8 2.00046 1.39656   1
   1  -2   8 -0.4105 1.58887   2
   1  -2   8 0.13516 1.04428   3
  -2   2  -8 6.32366 1.50577   2
  -2   2  -8 8.12515 1.44960   2
  -2   2  -8 10.2688 2.22822   4
   2  -2   8 7.28747 2.10388   3
  -3   2  -8 25.1042 3.10682   4
  -3   2  -8 18.8637 2.77436   1
   3  -2   8 14.5532 2.14192   3
  -4   2  -8 21.8302 3.78239   4
  -4   2  -8 24.5387 3.82470   1
   4  -2   8 18.3879 2.47700   3
  -5   2  -8 14.0629 3.40024   1
  -5   2  -8 13.5271 3.93355   4
   5  -2   8 6.70611 2.32429   3
  -6   2  -8 4.95437 3.92524   1
  -6   2  -8 3.47253 3.05084   4
   6  -2   8 2.69527 2.45659   3
  -7   2  -8 -2.2533 4.41148   1
   7  -2   8 -1.8227 2.67424   3
   7  -2   8 1.63841 4.27586   4
  -8   2  -8 0.69865 5.41853   1
   8  -2   8 -1.0840 3.39225   3
   8  -2   8 -3.7943 4.64622   4
  -9   2  -8 5.81228 6.36997   1
   9  -2   8 -4.6750 3.97772   3
   9  -2   8 1.57331 5.16163   4
  11   1  -8 -4.2028 5.61216   1
 -11  -1   8 12.5897 6.27807   2
  10   1  -8 -1.1517 4.67615   1
 -10  -1   8 -2.5694 5.18078   2
   9   1  -8 4.59249 4.09789   1
   9   1  -8 -3.0027 2.65689   4
  -9  -1   8 8.66207 4.72546   3
  -9  -1   8 -1.2949 4.92677   2
   8   1  -8 18.5306 2.36952   4
   8   1  -8 14.4157 4.09881   1
  -8  -1   8 12.1528 3.96331   2
  -8  -1   8 22.2943 4.18670   3
   7   1  -8 56.5316 4.91631   1
   7   1  -8 52.6380 2.77023   4
  -7  -1   8 51.1481 4.54904   3
  -7  -1   8 55.2720 5.19938   2
   6   1  -8 62.1377 4.80039   1
   6   1  -8 67.6271 2.62950   4
  -6  -1   8 69.2540 5.19311   2
  -6  -1   8 71.5302 4.55739   3
   5   1  -8 48.2274 1.89701   4
   5   1  -8 42.8278 3.86990   1
   5   1  -8 47.3950 2.46968   4
  -5  -1   8 51.9856 3.56753   3
  -5  -1   8 46.9194 4.63545   2
   4   1  -8 1.50909 2.29134   1
  -4  -1   8 1.22327 1.67561   3
   3   1  -8 26.1195 2.39246   1
  -3  -1   8 28.8019 2.81535   2
  -3  -1   8 23.9456 2.23944   3
   2   1  -8 174.801 6.38350   1
  -2  -1   8 177.222 6.08529   3
  -2  -1   8 185.747 6.63702   2
   1   1  -8 257.943 8.35668   1
   1   1  -8 258.849 7.27776   4
  -1  -1   8 242.626 7.11439   4
  -1  -1   8 264.122 8.02491   3
  -1  -1   8 263.950 8.39260   2
   0   1  -8 110.533 4.05463   4
   0   1  -8 104.140 4.43900   1
   0  -1   8 103.855 4.34744   2
   0  -1   8 106.418 4.14378   3
  -1   1  -8 10.1047 1.91411   4
  -1   1  -8 6.52161 1.81315   1
  -1   1  -8 5.62010 1.61622   2
   1  -1   8 6.23524 1.38927   3
  -2   1  -8 5.81721 1.93660   1
  -2   1  -8 7.14657 1.31673   2
  -2   1  -8 6.31017 2.10600   4
  -2   1  -8 8.53241 1.45638   2
  -3   1  -8 24.9482 3.54575   1
  -3   1  -8 27.2639 3.35406   4
   3  -1   8 25.8624 2.71562   3
  -4   1  -8 14.2063 3.58162   1
  -4   1  -8 18.5750 3.47471   4
   4  -1   8 12.0508 2.82230   3
   4  -1   8 11.4609 3.21170   4
  -5   1  -8 10.7391 3.69536   1
   5  -1   8 12.1404 2.42222   3
   5  -1   8 12.8760 3.70790   4
  -6   1  -8 3.77012 3.79504   1
   6  -1   8 0.49705 4.18053   4
   6  -1   8 2.67327 2.58465   3
  -7   1  -8 2.62509 4.45634   1
   7  -1   8 2.27010 3.97488   4
   7  -1   8 1.72708 2.76558   3
  -8   1  -8 8.77040 5.50755   1
   8  -1   8 2.74531 4.41002   4
   8  -1   8 7.39310 3.52120   3
  -9   1  -8 7.61161 6.25996   1
   9  -1   8 1.18533 4.51144   3
   9  -1   8 -1.1732 4.96087   4
  10   0  -8 -4.0015 4.66736   1
 -10   0   8 9.36220 5.33146   3
 -10   0   8 0.57404 5.18857   2
   9   0  -8 -5.8741 3.91854   1
   9   0  -8 -3.4289 2.48101   4
  -9   0   8 -7.5824 4.47912   3
  -9   0   8 0.01645 4.30796   2
   8   0  -8 43.5871 4.86313   1
   8   0  -8 43.2978 3.00661   4
  -8   0   8 47.5380 5.38349   3
  -8   0   8 35.5049 4.94763   2
   7   0  -8 51.9986 2.56111   4
   7   0  -8 46.9006 4.69758   1
  -7   0   8 51.2837 4.58710   2
   6   0  -8 98.5289 4.11500   4
   6   0  -8 102.655 3.11483   4
  -6   0   8 97.2505 5.06239   3
  -6   0   8 94.4115 5.84579   2
   5   0  -8 63.3401 4.15930   1
  -5   0   8 66.4546 3.72916   3
  -5   0   8 57.6694 4.18602   2
   4   0  -8 1.23125 1.49181   1
  -4   0   8 -0.2747 1.45192   3
  -4   0   8 0.09042 1.82449   2
   3   0  -8 79.3984 3.79322   1
  -3   0   8 83.8557 4.20951   2
  -3   0   8 90.8230 3.87249   3
   2   0  -8 111.412 4.57681   1
  -2   0   8 118.006 4.59213   3
  -2   0   8 113.000 4.91236   2
   1   0  -8 324.043 9.75457   1
  -1   0   8 321.120 9.76641   2
  -1   0   8 291.601 8.65000   4
  -1   0   8 323.341 9.55404   3
  -1   0   8 315.492 8.58699   4
   0   0  -8 100.320 4.26907   1
   0   0  -8 100.457 4.18755   2
   0   0   8 93.8672 3.97334   3
   0   0   8 95.3918 3.82096   4
  -1   0  -8 16.5471 1.98418   2
  -1   0  -8 16.8008 2.30905   1
   1   0   8 16.0734 2.32038   4
   1   0   8 12.2515 1.53782   3
  -2   0  -8 11.7753 1.44193   2
  -2   0  -8 13.5726 2.81800   1
   2   0   8 13.2239 2.48928   4
  -3   0  -8 14.5165 1.38547   2
  -3   0  -8 15.1867 4.04270   1
  -3   0  -8 16.4116 1.92544   2
   3   0   8 21.9119 3.19851   4
   3   0   8 18.6344 2.36165   3
  -4   0  -8 4.99578 3.18053   1
   4   0   8 6.37045 3.39445   4
  -5   0  -8 13.5160 3.86145   1
   5   0   8 13.1067 3.83033   4
   5   0   8 14.7627 2.42880   3
  -6   0  -8 -5.1094 3.80976   1
   6   0   8 4.23464 2.59484   3
   6   0   8 -3.7084 3.42530   4
  -7   0  -8 0.87128 4.61372   1
   7   0   8 4.59726 2.97405   3
   7   0   8 -3.9452 3.87373   4
   8   0   8 -1.6840 7.17364   4
   8   0   8 -0.5254 3.76021   3
  11  -1  -8 -2.2424 5.20575   1
 -11   1   8 1.18723 6.36817   3
 -11   1   8 3.35951 5.69753   2
  10  -1  -8 -5.4075 4.11449   1
 -10   1   8 -1.6753 5.36700   3
 -10   1   8 4.12763 3.94440   2
   9  -1  -8 2.70800 3.63408   1
   9  -1  -8 -1.0775 2.43195   4
  -9   1   8 1.40402 3.73826   2
  -9   1   8 2.56521 3.98074   3
   8  -1  -8 31.6302 2.78823   4
   8  -1  -8 41.8785 4.71206   1
  -8   1   8 33.7938 5.10268   2
  -8   1   8 45.2099 5.31154   3
   7  -1  -8 43.7083 2.32932   4
   7  -1  -8 43.2313 4.31453   1
  -7   1   8 49.5383 4.79267   2
  -7   1   8 48.2410 5.09803   3
   6  -1  -8 112.111 5.69219   1
  -6   1   8 122.695 6.48670   2
   5  -1  -8 90.2284 4.47174   1
  -5   1   8 89.3323 5.11802   2
  -5   1   8 86.2162 4.50471   3
   4  -1  -8 18.1871 2.38203   1
  -4   1   8 21.1902 2.67319   2
  -4   1   8 17.6733 2.15214   3
   3  -1  -8 47.9273 2.79260   1
  -3   1   8 45.2180 2.80970   3
  -3   1   8 43.7026 3.22204   2
   2  -1  -8 70.3152 3.29439   1
  -2   1   8 64.2842 3.27674   3
  -2   1   8 63.3881 1.99974   4
  -2   1   8 67.0685 2.29629   4
  -2   1   8 67.3503 3.62776   2
   1  -1  -8 374.919 11.1580   1
   1  -1  -8 372.177 11.2633   2
  -1   1   8 388.818 11.1673   3
  -1   1   8 361.845 10.0441   4
   0  -1  -8 82.9076 3.81329   1
   0  -1  -8 76.0124 3.60031   2
   0   1   8 77.4342 3.30564   4
   0   1   8 78.6390 3.46635   3
  -1  -1  -8 11.5980 1.79644   2
  -1  -1  -8 10.0593 2.85563   1
   1   1   8 13.8032 1.94651   4
   1   1   8 7.62088 1.49238   3
  -2  -1  -8 -0.3611 2.25652   1
  -2  -1  -8 2.36054 1.19294   2
   2   1   8 4.13873 2.10140   4
  -3  -1  -8 2.58237 1.27004   2
  -3  -1  -8 -0.3968 2.43716   1
   3   1   8 0.76160 2.70791   4
   3   1   8 8.19127 1.89564   3
  -4  -1  -8 1.36910 3.25239   1
  -4  -1  -8 0.42578 1.49248   2
   4   1   8 1.75660 2.46785   3
   4   1   8 5.29259 3.08430   4
  -5  -1  -8 9.07010 3.85940   1
   5   1   8 11.7669 2.60594   3
   5   1   8 16.4926 3.89277   4
  -6  -1  -8 3.85014 4.33506   1
   6   1   8 3.03363 2.81976   3
   6   1   8 -3.1603 3.41174   4
  -7  -1  -8 4.80563 5.26727   1
   7   1   8 -2.3926 3.27011   3
   7   1   8 -1.7097 3.73879   4
  -8  -1  -8 5.00328 6.17671   1
   8   1   8 3.16733 4.37993   3
   8   1   8 0.36684 4.85733   4
  12  -2  -8 -7.7451 9.36147   1
 -12   2   8 9.38846 7.32526   3
 -12   2   8 -3.2582 6.14509   2
  11  -2  -8 10.3380 4.94241   1
 -11   2   8 13.0962 6.02212   2
 -11   2   8 7.87069 6.62741   3
  10  -2  -8 13.7359 4.55204   1
 -10   2   8 10.6933 5.57531   3
 -10   2   8 6.41374 5.21771   2
   9  -2  -8 3.43267 3.47780   1
   9  -2  -8 2.26993 2.36867   4
  -9   2   8 5.94433 4.21875   3
  -9   2   8 -0.6540 3.50228   2
   8  -2  -8 21.4383 2.53045   4
   8  -2  -8 17.6281 3.72067   1
  -8   2   8 23.0095 4.20654   3
  -8   2   8 22.4494 3.80777   2
   7  -2  -8 74.4292 4.85178   1
   7  -2  -8 77.2219 3.04065   4
  -7   2   8 83.3335 5.56783   3
  -7   2   8 78.4121 5.26234   2
   6  -2  -8 181.882 8.21857   1
  -6   2   8 186.351 7.75490   3
  -6   2   8 162.132 9.76769   2
   5  -2  -8 201.516 7.13426   1
  -5   2   8 193.770 7.81570   2
   4  -2  -8 28.3857 2.40562   1
  -4   2   8 31.6531 2.98701   2
  -4   2   8 27.4114 2.50019   3
   3  -2  -8 15.6227 2.03474   1
   3  -2  -8 19.5402 2.79491   2
  -3   2   8 21.6836 2.34143   3
  -3   2   8 24.6307 2.89146   2
   2  -2  -8 165.063 6.10108   2
   2  -2  -8 159.443 5.71385   1
  -2   2   8 152.456 4.91483   4
  -2   2   8 150.646 4.44989   4
  -2   2   8 157.611 5.83306   3
   1  -2  -8 171.741 6.36379   2
   1  -2  -8 177.456 6.32521   1
  -1   2   8 176.386 5.34956   4
  -1   2   8 184.136 6.31442   3
   0  -2  -8 67.1322 3.49182   1
   0  -2  -8 63.4372 3.38953   2
   0   2   8 62.7308 2.93163   4
   0   2   8 64.4417 3.26268   3
  -1  -2  -8 17.6397 2.07538   2
  -1  -2  -8 14.0964 2.85536   1
   1   2   8 12.1786 2.01549   3
   1   2   8 15.4101 2.34855   4
  -2  -2  -8 -2.4711 1.33609   2
   2   2   8 4.52656 2.07276   4
  -3  -2  -8 2.20648 3.21763   1
  -3  -2  -8 0.77293 1.47028   2
   3   2   8 2.71438 1.95851   3
   3   2   8 2.38535 2.74770   4
  -4  -2  -8 3.49787 3.59487   1
  -4  -2  -8 1.10558 1.92751   2
   4   2   8 8.94912 3.02964   4
   4   2   8 5.35214 2.76878   3
  -5  -2  -8 10.5061 4.27244   1
   5   2   8 3.79798 2.76179   3
   5   2   8 1.06075 3.31624   4
  -6  -2  -8 -7.2748 4.20266   1
   6   2   8 -1.7993 3.93486   4
   6   2   8 -7.4998 2.92824   3
   7   2   8 -5.4328 4.05575   3
   7   2   8 0.75429 3.92057   4
   8   2   8 -1.5331 4.94992   4
  12  -3  -8 11.6300 6.13696   1
 -12   3   8 7.10783 10.2517   2
 -12   3   8 3.78345 8.37698   3
  11  -3  -8 7.01985 4.77733   1
 -11   3   8 6.75078 6.70913   3
 -11   3   8 12.9112 5.83274   2
  10  -3  -8 17.5823 4.29528   1
 -10   3   8 19.8825 5.59635   3
 -10   3   8 12.7970 4.76518   2
   9  -3  -8 -2.2273 3.18463   1
   9  -3  -8 2.44539 2.49560   4
  -9   3   8 3.06182 3.68650   2
  -9   3   8 10.0393 4.30116   3
   8  -3  -8 30.4275 3.08818   4
  -8   3   8 26.0832 4.04543   2
  -8   3   8 31.7797 4.99855   3
   7  -3  -8 79.7594 5.87776   1
  -7   3   8 88.9513 5.97904   3
  -7   3   8 93.9264 5.94050   2
   6  -3  -8 174.496 6.31102   1
   6  -3  -8 160.313 4.57250   4
  -6   3   8 167.951 4.89967   4
  -6   3   8 156.882 7.18019   3
  -6   3   8 151.500 8.32610   2
   5  -3  -8 137.878 6.58513   2
   5  -3  -8 128.638 3.68002   4
   5  -3  -8 132.790 5.26074   1
  -5   3   8 134.525 6.13651   3
  -5   3   8 128.820 6.01524   2
   4  -3  -8 40.5006 1.76791   4
   4  -3  -8 40.5072 3.48698   2
   4  -3  -8 40.9159 2.78166   1
   3  -3  -8 18.3389 2.45153   2
   3  -3  -8 16.8925 2.15233   1
   3  -3  -8 14.6243 1.79484   4
  -3   3   8 18.2698 2.44388   3
  -3   3   8 15.6414 1.44326   4
   2  -3  -8 99.3002 4.65960   2
   2  -3  -8 102.473 4.39109   1
  -2   3   8 104.690 4.54704   3
  -2   3   8 99.3490 3.41446   4
   1  -3  -8 65.7225 3.62151   2
   1  -3  -8 63.8166 3.51322   1
  -1   3   8 67.2047 2.77581   4
  -1   3   8 69.6394 3.46529   3
   0  -3  -8 64.8969 3.85347   1
   0  -3  -8 56.3421 3.29048   2
   0   3   8 68.7468 3.53810   3
   0   3   8 63.5063 3.07146   4
  -1  -3  -8 10.1024 4.20713   1
  -1  -3  -8 16.4089 2.29396   2
   1   3   8 14.6908 3.18679   3
   1   3   8 11.8183 2.16143   4
  -2  -3  -8 -0.2029 2.91927   1
  -2  -3  -8 2.97619 1.65422   2
   2   3   8 -1.5085 1.90898   3
   2   3   8 4.37994 2.52134   4
  -3  -3  -8 4.38516 1.72149   2
  -3  -3  -8 5.01451 3.71609   1
   3   3   8 7.25528 2.39939   3
   3   3   8 -0.0729 2.74134   4
  -4  -3  -8 4.21404 3.77583   1
  -4  -3  -8 6.69911 2.27690   2
   4   3   8 7.18556 3.06394   4
   4   3   8 3.08765 2.92947   3
  -5  -3  -8 6.43296 5.29404   1
   5   3   8 0.81895 3.16978   3
   5   3   8 16.9328 4.19529   4
  -6  -3  -8 9.30909 5.79895   1
   6   3   8 1.46573 4.15964   4
   6   3   8 -3.3374 3.57157   3
  -7  -3  -8 -5.5973 7.07329   1
   7   3   8 0.58264 4.45656   4
  12  -4  -8 9.89912 5.90194   1
 -12   4   8 4.20037 9.02663   2
 -12   4   8 -8.4059 8.51927   3
  11  -4  -8 8.09381 4.64125   1
 -11   4   8 17.7056 5.43036   2
 -11   4   8 18.4390 6.58288   3
  10  -4  -8 12.8733 4.15487   1
 -10   4   8 19.4004 5.08498   2
 -10   4   8 14.8281 5.81444   3
   9  -4  -8 2.91570 3.04203   1
  -9   4   8 6.76522 2.99862   4
  -9   4   8 15.0411 4.81780   3
  -9   4   8 17.2248 4.66098   2
   8  -4  -8 13.2649 4.01748   2
   8  -4  -8 16.2825 3.19049   1
  -8   4   8 18.6328 2.95081   4
  -8   4   8 17.1964 4.00206   3
  -8   4   8 14.9479 3.88691   2
   7  -4  -8 101.576 4.70580   1
   7  -4  -8 90.9994 5.91103   2
  -7   4   8 92.0314 6.18781   3
  -7   4   8 99.6694 4.24683   4
   6  -4  -8 83.1317 4.10742   1
   6  -4  -8 82.0758 5.35419   2
  -6   4   8 87.1089 5.40022   3
  -6   4   8 84.3496 3.58306   4
   5  -4  -8 108.996 5.80755   2
   5  -4  -8 125.409 4.85115   1
  -5   4   8 114.102 5.81500   3
  -5   4   8 116.835 4.14542   4
   4  -4  -8 41.2734 2.87908   1
   4  -4  -8 40.0533 3.72666   2
  -4   4   8 39.3604 2.32556   4
  -4   4   8 40.9855 3.57689   3
   3  -4  -8 12.9339 2.52514   2
   3  -4  -8 10.5661 2.08169   1
  -3   4   8 13.5949 1.61210   4
  -3   4   8 13.6251 2.84989   3
   2  -4  -8 39.8524 2.97510   1
   2  -4  -8 47.1275 3.47059   2
  -2   4   8 43.4615 2.34282   4
   1  -4  -8 68.4943 3.70120   2
   1  -4  -8 69.7792 3.97554   1
  -1   4   8 76.4114 3.28537   4
   0  -4  -8 32.8090 2.83491   2
   0   4   8 30.3871 2.53562   4
  -1  -4  -8 10.8877 4.87917   1
  -1  -4  -8 8.86159 2.07895   2
   1   4   8 5.53649 2.29771   4
   1   4   8 7.32081 2.66662   3
  -2  -4  -8 -0.1640 3.46560   1
  -2  -4  -8 -2.7334 1.85596   2
   2   4   8 -1.2093 2.30731   3
   2   4   8 0.82342 2.46687   4
  -3  -4  -8 1.48289 2.11197   2
  -3  -4  -8 2.12487 3.82500   1
   3   4   8 1.20657 2.68818   3
   3   4   8 1.87622 2.69899   4
  -4  -4  -8 6.22097 4.96742   1
  -4  -4  -8 0.28941 2.58950   2
   4   4   8 1.68146 3.69407   3
   4   4   8 1.45217 3.19357   4
  -5  -4  -8 0.93808 5.61609   1
   5   4   8 4.94364 3.74963   3
   5   4   8 1.06243 3.29993   4
   6   4   8 -2.9417 4.34073   4
  12  -5  -8 -11.647 5.11082   1
  12  -5  -8 11.9243 7.58830   2
 -12   5   8 1.27073 9.10828   3
  11  -5  -8 16.0347 5.02445   1
  11  -5  -8 16.1420 5.72568   2
 -11   5   8 28.6112 6.81422   3
  10  -5  -8 17.6908 4.28756   1
  10  -5  -8 18.9839 5.29962   2
 -10   5   8 31.2597 6.57166   3
 -10   5   8 23.5858 4.56094   4
   9  -5  -8 10.7914 4.33720   2
   9  -5  -8 11.9567 3.42660   1
  -9   5   8 18.1576 4.94713   3
  -9   5   8 8.67684 3.40417   4
   8  -5  -8 3.81502 2.25108   1
   8  -5  -8 5.01007 3.72101   2
  -8   5   8 6.19747 2.88408   4
  -8   5   8 2.84462 3.63727   3
   7  -5  -8 124.711 6.88409   2
   7  -5  -8 139.576 5.59649   1
  -7   5   8 138.762 5.39620   4
  -7   5   8 121.116 7.01527   3
   6  -5  -8 9.08358 2.06960   1
   6  -5  -8 -0.6718 2.91520   2
  -6   5   8 9.93178 2.19224   4
  -6   5   8 8.76250 3.40375   3
   5  -5  -8 117.107 6.22955   2
   5  -5  -8 127.845 5.01315   1
  -5   5   8 117.801 4.55186   4
  -5   5   8 102.121 5.80050   3
   4  -5  -8 30.7042 3.80240   2
   4  -5  -8 24.1960 2.59444   1
  -4   5   8 23.9007 3.48888   3
  -4   5   8 25.6571 2.36007   4
   3  -5  -8 3.54650 2.29261   2
   3  -5  -8 0.51218 1.71928   1
  -3   5   8 -0.7281 1.44774   4
  -3   5   8 -2.2125 2.16144   3
   2  -5  -8 26.5067 3.12301   1
   2  -5  -8 23.4547 3.74752   2
  -2   5   8 21.8891 2.03600   4
  -2   5   8 23.1815 3.33710   3
   1  -5  -8 61.9928 4.05037   1
   1  -5  -8 56.8062 4.31628   2
  -1   5   8 60.6506 3.20041   4
  -1   5   8 60.6954 4.18923   3
   0  -5  -8 10.5282 2.42057   2
   0  -5  -8 11.8501 3.29186   1
   0   5   8 11.2677 2.61254   3
  -1  -5  -8 12.8649 4.03038   1
  -1  -5  -8 8.66050 2.63629   2
   1   5   8 8.34239 2.76969   3
   1   5   8 11.4819 2.82565   4
  -2  -5  -8 -0.9176 3.99732   1
  -2  -5  -8 -0.4047 4.75213   2
   2   5   8 3.51382 2.54151   4
   2   5   8 4.06430 2.84962   3
  -3  -5  -8 5.81054 3.14558   2
  -3  -5  -8 1.66040 4.70498   1
   3   5   8 2.87408 3.29549   3
   3   5   8 1.78510 3.08039   4
  -4  -5  -8 -3.2795 3.24791   2
  -4  -5  -8 -3.7481 5.15498   1
   4   5   8 2.63520 4.33788   3
   4   5   8 -4.3207 3.02120   4
  -5  -5  -8 3.01772 6.43087   1
   5   5   8 -3.9332 3.48380   4
  -6  -5  -8 9.14994 8.46069   1
   6   5   8 4.86554 4.32397   4
  12  -6  -8 0.62942 8.59944   2
 -12   6   8 -11.930 8.83714   3
  11  -6  -8 12.4512 5.02753   2
  11  -6  -8 20.1564 4.62425   1
 -11   6   8 22.7586 7.22272   3
  10  -6  -8 21.3623 4.84216   2
  10  -6  -8 21.6313 4.44362   1
 -10   6   8 24.1187 4.53142   4
 -10   6   8 28.7237 6.31411   3
   9  -6  -8 4.17623 4.03677   2
   9  -6  -8 11.4114 3.06024   1
  -9   6   8 7.97416 3.41753   4
  -9   6   8 12.7731 4.96706   3
   8  -6  -8 3.79583 2.38626   1
   8  -6  -8 5.04729 3.66452   2
  -8   6   8 -3.5221 3.61193   3
  -8   6   8 -0.8071 3.05851   4
   7  -6  -8 41.0167 3.33254   1
   7  -6  -8 40.1808 5.17780   2
  -7   6   8 32.3643 4.59547   3
  -7   6   8 33.8418 3.63111   4
   6  -6  -8 19.1062 2.63131   1
   6  -6  -8 18.6137 3.45652   2
  -6   6   8 17.1069 2.79642   4
  -6   6   8 11.6172 3.27176   3
   5  -6  -8 167.643 7.46230   2
   5  -6  -8 167.905 5.97003   1
  -5   6   8 162.212 7.54431   3
  -5   6   8 164.814 6.06837   4
   4  -6  -8 36.0623 4.04490   2
   4  -6  -8 30.9470 3.05923   1
  -4   6   8 39.1600 3.00566   4
  -4   6   8 42.8138 4.42671   3
   3  -6  -8 -2.6414 1.94083   1
   3  -6  -8 0.82975 2.79845   2
  -3   6   8 -2.3156 1.67096   4
  -3   6   8 -1.6232 4.59050   3
   2  -6  -8 19.1601 2.98752   1
   2  -6  -8 12.3771 3.27087   2
  -2   6   8 16.4351 2.31697   4
  -2   6   8 9.76736 3.05934   3
   1  -6  -8 26.7942 3.43979   2
  -1   6   8 21.1883 3.25830   3
  -1   6   8 21.0131 2.87939   4
   0  -6  -8 7.51961 4.28788   1
   0  -6  -8 9.38805 2.56947   2
   0   6   8 5.75899 3.08311   4
   0   6   8 10.7724 3.40074   3
  -1  -6  -8 9.10460 4.32622   1
   1   6   8 12.2434 2.83081   4
   1   6   8 10.4187 3.53041   3
  -2  -6  -8 -1.5867 2.87888   2
  -2  -6  -8 1.45900 4.74383   1
   2   6   8 0.74060 3.41941   3
   2   6   8 0.33733 2.57139   4
  -3  -6  -8 -4.9646 5.15283   1
  -3  -6  -8 -2.4955 3.30907   2
   3   6   8 2.58994 3.15496   4
   3   6   8 5.02690 4.16726   3
  -4  -6  -8 1.84968 4.02509   2
  -4  -6  -8 13.9382 6.89786   1
   4   6   8 0.06847 3.29065   4
  -5  -6  -8 10.4047 8.20672   1
   5   6   8 1.17921 4.03379   4
  12  -7  -8 3.56542 6.75837   2
 -12   7   8 -0.5034 10.1758   3
  11  -7  -8 1.90032 5.34124   2
 -11   7   8 22.4575 7.58017   3
  10  -7  -8 12.1457 4.89920   2
 -10   7   8 8.17055 5.33599   3
 -10   7   8 5.54191 4.94658   4
   9  -7  -8 7.76287 2.87293   1
   9  -7  -8 7.82669 4.03006   2
  -9   7   8 -6.2820 4.34363   3
  -9   7   8 3.40223 3.80054   4
   8  -7  -8 2.16621 2.49672   1
   8  -7  -8 1.10313 3.41071   2
  -8   7   8 0.38221 3.42848   4
  -8   7   8 1.37120 3.90033   3
   7  -7  -8 9.40450 3.41489   2
   7  -7  -8 17.2597 2.57869   1
  -7   7   8 5.55731 3.87676   3
  -7   7   8 8.62146 3.13340   4
   6  -7  -8 60.1938 5.13713   2
   6  -7  -8 64.9743 3.67409   1
  -6   7   8 63.5312 5.56733   3
  -6   7   8 66.8928 4.42977   4
   5  -7  -8 50.1925 4.45613   2
   5  -7  -8 52.6886 3.53149   1
  -5   7   8 45.6102 3.93390   4
  -5   7   8 54.5913 5.05140   3
   4  -7  -8 8.11246 2.50726   1
   4  -7  -8 7.77384 2.47307   2
  -4   7   8 4.86868 2.37695   4
  -4   7   8 5.66147 3.03271   3
   3  -7  -8 0.32633 2.48689   2
   3  -7  -8 0.56173 2.58432   1
  -3   7   8 1.17973 2.87940   3
  -3   7   8 1.84571 2.17811   4
   2  -7  -8 1.01811 2.70158   2
   2  -7  -8 1.08828 2.78298   1
  -2   7   8 3.28462 3.27969   3
  -2   7   8 5.59461 2.38175   4
   1  -7  -8 11.9950 2.91151   2
   1  -7  -8 10.2608 3.61551   1
  -1   7   8 12.4189 3.64101   3
  -1   7   8 8.72531 2.73109   4
   0  -7  -8 11.0520 4.03789   1
   0  -7  -8 3.28497 2.84477   2
   0   7   8 10.0183 3.01115   4
  -1  -7  -8 -3.3675 4.76197   1
  -1  -7  -8 3.34461 2.72200   2
   1   7   8 -0.9141 3.04449   4
   1   7   8 6.11369 7.25538   3
  -2  -7  -8 -7.5809 2.96653   2
  -2  -7  -8 9.85372 5.44001   1
   2   7   8 2.86414 4.97582   3
   2   7   8 -0.1587 3.06288   4
  -3  -7  -8 -5.7771 6.27158   1
  -3  -7  -8 -3.1237 3.57513   2
   3   7   8 1.04191 3.13888   4
  -4  -7  -8 15.2748 8.17323   1
  -4  -7  -8 4.79623 4.78534   2
   4   7   8 -4.4416 3.53921   4
  12  -8  -8 1.59552 6.01157   2
 -12   8   8 -1.1577 9.26608   3
  11  -8  -8 10.0049 5.26455   2
 -11   8   8 7.15970 7.14061   3
  10  -8  -8 8.29330 4.56532   2
 -10   8   8 19.3288 6.40502   4
 -10   8   8 9.46515 5.83386   3
   9  -8  -8 -0.1396 3.84048   2
  -9   8   8 -2.2282 4.46378   4
  -9   8   8 1.07520 4.34835   3
   8  -8  -8 -2.9087 3.94966   2
  -8   8   8 3.60343 4.12190   3
   7  -8  -8 6.75112 3.83278   2
  -7   8   8 4.47753 3.68244   4
  -7   8   8 -1.9974 3.92397   3
   6  -8  -8 8.23089 2.52631   1
   6  -8  -8 14.9566 3.64395   2
  -6   8   8 16.2739 3.42106   4
  -6   8   8 9.86575 3.76109   3
   5  -8  -8 3.00366 3.05233   2
   5  -8  -8 13.3880 2.98344   1
  -5   8   8 4.92002 3.27205   3
   4  -8  -8 10.9945 3.03147   1
   4  -8  -8 9.39105 2.79020   2
  -4   8   8 7.66498 2.99757   4
  -4   8   8 10.1291 3.49861   3
   3  -8  -8 2.03577 2.61747   2
   3  -8  -8 2.68227 3.15211   1
  -3   8   8 -1.3064 5.26902   4
  -3   8   8 5.73411 3.76522   3
   2  -8  -8 6.05221 3.69891   1
   2  -8  -8 1.23932 2.84421   2
  -2   8   8 0.05617 3.16818   3
  -2   8   8 0.58643 2.61997   4
   1  -8  -8 15.2009 3.35926   2
   1  -8  -8 6.24422 4.84173   1
  -1   8   8 3.27874 3.98342   3
  -1   8   8 3.46389 2.69611   4
   0  -8  -8 2.22108 3.17156   2
   0  -8  -8 12.5492 4.85884   1
   0   8   8 5.28818 4.43590   3
   0   8   8 -0.8228 2.94230   4
  -1  -8  -8 7.50150 5.50508   1
  -1  -8  -8 1.00364 3.41129   2
   1   8   8 1.22223 4.55491   3
   1   8   8 2.10603 3.10508   4
  -2  -8  -8 -1.1751 7.12874   1
  -2  -8  -8 4.54681 3.78263   2
   2   8   8 -1.5491 3.74217   4
  -3  -8  -8 -11.774 8.30452   1
  -3  -8  -8 4.88026 4.16035   2
   3   8   8 -1.7819 4.38140   4
  11  -9  -8 7.40410 8.96631   2
 -11   9   8 13.8527 7.72074   3
  10  -9  -8 5.70796 4.82847   2
 -10   9   8 3.52457 5.72687   4
 -10   9   8 1.06610 5.82044   3
   9  -9  -8 2.81790 4.19319   2
  -9   9   8 3.67172 5.55972   4
  -9   9   8 8.34259 5.18913   3
   8  -9  -8 5.58657 3.64685   2
  -8   9   8 -5.8660 4.32828   3
  -8   9   8 -3.7566 4.49469   4
   7  -9  -8 3.16992 3.26424   2
  -7   9   8 3.38939 4.04912   3
   6  -9  -8 9.02291 3.43960   2
  -6   9   8 1.67264 4.16687   4
  -6   9   8 -2.4069 4.09459   3
   5  -9  -8 6.13536 3.03469   2
  -5   9   8 10.2736 4.49521   3
  -5   9   8 5.84820 3.90926   4
   4  -9  -8 14.0960 3.59448   1
   4  -9  -8 6.00903 2.97970   2
  -4   9   8 8.92583 3.41462   4
  -4   9   8 13.3973 4.26382   3
   3  -9  -8 -6.3605 3.60123   1
   3  -9  -8 -1.5010 3.08139   2
  -3   9   8 -0.1956 3.85540   3
  -3   9   8 2.60546 3.14816   4
   2  -9  -8 -0.2030 2.71067   2
   2  -9  -8 0.55961 4.20347   1
  -2   9   8 -1.1857 2.90803   4
  -2   9   8 -6.0467 4.25397   3
   1  -9  -8 3.79884 2.94759   2
   1  -9  -8 5.08256 5.06811   1
  -1   9   8 4.01507 4.55013   3
  -1   9   8 -0.3443 2.96476   4
   0  -9  -8 1.54171 3.26495   2
   0  -9  -8 -7.5617 5.57488   1
   0   9   8 -1.9125 3.03066   4
   0   9   8 -3.9181 4.75890   3
  -1  -9  -8 -4.6663 3.64577   2
  -1  -9  -8 8.38561 6.59075   1
   1   9   8 -1.1012 3.80435   4
  -2  -9  -8 2.88642 4.66786   2
  -2  -9  -8 0.83825 7.80759   1
   2   9   8 8.80404 4.22958   4
  11 -10  -8 0.30313 5.44680   2
 -11  10   8 3.14232 8.05902   3
 -10  10   8 -2.2757 5.59727   3
 -10  10   8 3.56314 6.13370   4
   9 -10  -8 -1.7426 3.84644   2
  -9  10   8 9.89680 5.33354   3
  -9  10   8 -2.3858 5.22266   4
   8 -10  -8 -7.0417 3.89115   2
  -8  10   8 -3.2619 4.33442   3
  -8  10   8 -0.3030 5.00279   4
   7 -10  -8 -1.6240 3.38829   2
  -7  10   8 -4.8043 4.63512   4
  -7  10   8 6.16386 4.99638   3
   6 -10  -8 5.26352 3.27693   2
  -6  10   8 11.8377 4.61488   3
  -6  10   8 8.34885 4.66679   4
   5 -10  -8 -0.5020 2.86147   2
  -5  10   8 -7.1133 4.77266   3
  -5  10   8 -1.9840 4.14861   4
   4 -10  -8 9.26706 3.73820   2
  -4  10   8 9.90125 3.75693   4
  -4  10   8 5.49280 5.11749   3
   3 -10  -8 -3.4577 3.08738   2
  -3  10   8 6.35774 3.55407   4
  -3  10   8 -2.9500 5.40309   3
   2 -10  -8 -6.0521 3.21188   2
  -2  10   8 2.38124 5.37987   3
  -2  10   8 -2.4687 3.36598   4
   1 -10  -8 2.47643 6.29622   1
   1 -10  -8 -0.1663 3.45146   2
  -1  10   8 -5.6385 5.60394   3
  -1  10   8 1.82774 3.76595   4
   0 -10  -8 4.09476 4.14055   2
   0 -10  -8 15.2595 7.36320   1
   0  10   8 -10.058 3.62006   4
  -1 -10  -8 6.79878 4.62801   2
  -1 -10  -8 3.63284 7.82970   1
   1  10   8 7.64992 4.19104   4
  10 -11  -8 -3.0087 5.04168   2
 -10  11   8 10.0484 7.25444   4
 -10  11   8 -10.207 6.39637   3
   9 -11  -8 0.35869 4.72035   2
  -9  11   8 1.05497 5.73564   4
  -9  11   8 -2.2561 4.96889   3
   8 -11  -8 1.52093 6.47960   2
  -8  11   8 -4.2644 5.84933   4
  -8  11   8 0.05174 5.31732   3
   7 -11  -8 2.53972 3.67488   2
  -7  11   8 7.49603 5.53403   4
  -7  11   8 2.32999 4.98803   3
   6 -11  -8 4.98694 3.91677   2
  -6  11   8 2.22951 5.14039   4
  -6  11   8 0.27343 5.28040   3
   5 -11  -8 0.34899 3.49530   2
  -5  11   8 -2.8874 5.20805   4
  -5  11   8 6.41783 5.30243   3
   4 -11  -8 1.56653 3.92193   2
  -4  11   8 2.90239 4.43849   4
  -4  11   8 6.29561 5.55621   3
   3 -11  -8 -4.7262 3.29496   2
  -3  11   8 4.44719 4.50333   4
  -3  11   8 1.36059 5.95535   3
   2 -11  -8 5.08433 3.87621   2
  -2  11   8 -0.6909 6.53793   3
  -2  11   8 -0.3527 4.26230   4
  -1  11   8 -2.9613 4.41163   4
   9 -12  -8 9.86660 4.64102   2
  -9  12   8 -5.1110 6.00526   3
  -9  12   8 6.00502 6.85333   4
   8 -12  -8 -3.4754 4.25082   2
  -8  12   8 -6.7351 5.36795   3
  -8  12   8 10.7966 6.76748   4
   7 -12  -8 -2.7734 4.03200   2
  -7  12   8 -4.5919 6.10580   4
  -7  12   8 7.48551 9.30298   3
   6 -12  -8 1.01104 3.87185   2
  -6  12   8 1.99968 5.72105   3
  -6  12   8 3.16598 6.07264   4
   5 -12  -8 5.06171 3.87373   2
  -5  12   8 -1.3946 5.43440   4
  -5  12   8 9.52457 6.79494   3
   4 -12  -8 -1.1206 4.37962   2
  -4  12   8 0.19901 6.70628   3
  -4  12   8 -0.9950 5.27315   4
   3 -12  -8 2.41331 4.21569   2
  -3  12   8 4.69672 5.60080   4
  -3  12   8 3.99496 6.86978   3
  -1  12  -9 -2.1663 6.04055   4
  -1  12  -9 -3.0739 5.94047   1
   1 -12   9 -16.392 6.57439   2
  -2  12  -9 -7.0925 5.86348   4
  -2  12  -9 0.87195 6.74951   1
   2 -12   9 -7.5395 4.93403   3
   2 -12   9 -0.9096 6.00275   2
  -3  12  -9 6.36664 6.36932   4
   3 -12   9 10.1643 4.63936   3
   3 -12   9 3.82606 6.05919   2
   4 -12   9 4.78534 4.84843   3
   4 -12   9 3.05191 6.52380   2
  -5  12  -9 1.61449 6.63611   4
   5 -12   9 -2.5825 4.78977   3
  -2 -11   9 -5.8282 5.88736   2
   1  11  -9 0.66820 5.62823   1
   1  11  -9 5.12973 5.52640   4
  -1 -11   9 -5.6090 7.15748   2
   0  11  -9 -3.4557 5.03824   4
   0  11  -9 -13.933 5.12480   1
   0 -11   9 4.66701 5.79992   2
  -1  11  -9 1.93163 5.48268   4
  -1  11  -9 -6.2669 5.04984   1
   1 -11   9 -3.9014 5.30470   2
   1 -11   9 1.80697 4.29468   3
  -2  11  -9 -0.3740 5.11494   1
  -2  11  -9 -4.1533 5.51086   4
   2 -11   9 -6.9781 4.54132   3
   2 -11   9 -2.7640 5.32045   2
  -3  11  -9 10.1234 5.26171   1
  -3  11  -9 7.19512 5.37685   4
   3 -11   9 0.50455 5.27288   2
   3 -11   9 1.96409 4.07169   3
  -4  11  -9 5.84334 5.08061   1
  -4  11  -9 -6.3462 5.90223   4
   4 -11   9 -9.2128 3.87765   3
   4 -11   9 -12.079 5.30005   2
  -5  11  -9 -2.6693 6.33749   4
  -5  11  -9 6.26547 7.46345   1
   5 -11   9 0.44204 3.90157   3
   6 -11   9 4.40268 4.10192   3
  -7  11  -9 -4.4585 6.24006   4
   7 -11   9 1.84903 4.32763   3
   3  10  -9 -1.6854 5.99126   1
   3  10  -9 -2.1647 5.22226   4
  -3 -10   9 8.98969 5.17036   2
   2  10  -9 3.65499 4.98210   1
   2  10  -9 1.41306 5.02674   4
  -2 -10   9 -4.3022 5.21887   2
   1  10  -9 4.47918 4.88878   4
   1  10  -9 0.30368 4.56577   1
  -1 -10   9 -3.9163 4.99834   2
   0  10  -9 -7.8149 4.61824   1
   0  10  -9 -0.2741 4.65595   4
   0 -10   9 0.61077 4.83747   2
   0 -10   9 2.51248 3.33898   3
  -1  10  -9 -6.5202 4.21022   1
  -1  10  -9 5.82941 4.56131   4
   1 -10   9 3.99593 3.80834   3
   1 -10   9 5.27643 4.97161   2
  -2  10  -9 -6.6108 4.18503   1
  -2  10  -9 3.91077 5.02615   4
   2 -10   9 -1.0801 3.43260   3
   2 -10   9 -7.8715 4.40509   2
  -3  10  -9 -0.8620 4.33445   1
  -3  10  -9 4.12616 5.44903   4
   3 -10   9 -0.9727 4.79056   2
   3 -10   9 2.36599 3.47123   3
  -4  10  -9 3.83472 5.37523   4
  -4  10  -9 4.21678 4.47692   1
   4 -10   9 -3.0274 5.20956   2
   4 -10   9 -7.0448 3.43190   3
  -5  10  -9 3.16345 5.13318   1
  -5  10  -9 -5.3012 5.01759   4
   5 -10   9 2.94254 3.89899   3
  -6  10  -9 -0.2173 6.36162   1
  -6  10  -9 5.10540 5.61725   4
   6 -10   9 1.43180 3.33326   3
  -7  10  -9 1.44352 7.12828   1
   7 -10   9 5.72056 4.10165   3
  -8  10  -9 5.91620 7.34207   4
   8 -10   9 1.97149 4.32108   3
   4   9  -9 -1.9201 4.95644   1
   4   9  -9 -0.3665 4.34522   4
  -4  -9   9 1.33832 5.05158   2
   3   9  -9 -1.1159 4.47035   4
   3   9  -9 0.86451 4.78262   1
  -3  -9   9 -0.7743 4.73024   2
   2   9  -9 3.04464 4.42944   1
   2   9  -9 2.24879 4.27343   4
  -2  -9   9 -0.0601 4.58797   2
   1   9  -9 -1.6858 4.08244   4
   1   9  -9 12.7616 4.41113   1
  -1  -9   9 4.13841 6.49441   3
  -1  -9   9 2.24707 4.36913   2
   0   9  -9 3.40516 4.04042   4
   0   9  -9 -2.0578 3.70249   1
   0  -9   9 -2.2900 3.99327   2
   0  -9   9 4.99342 3.30474   3
  -1   9  -9 -3.5354 3.33508   1
  -1   9  -9 1.90333 3.92196   4
   1  -9   9 1.34462 3.19396   3
   1  -9   9 -3.4605 4.19539   2
  -2   9  -9 5.14359 3.61569   1
  -2   9  -9 3.67190 4.51100   4
   2  -9   9 0.43825 3.11079   3
   2  -9   9 8.61124 4.54483   2
  -3   9  -9 -4.3958 4.57415   4
  -3   9  -9 0.93065 3.59511   1
   3  -9   9 10.5765 7.76545   2
   3  -9   9 0.63979 3.14952   3
  -4   9  -9 1.40991 4.61254   4
  -4   9  -9 2.94987 3.70928   1
   4  -9   9 -6.6617 2.91893   3
   4  -9   9 -1.6939 5.28665   2
  -5   9  -9 -6.0602 5.10976   4
  -5   9  -9 3.51128 4.80804   1
   5  -9   9 3.54391 2.90503   3
  -6   9  -9 8.11501 5.69309   4
  -6   9  -9 -6.6843 5.36833   1
   6  -9   9 1.43723 3.52904   3
  -7   9  -9 -2.3677 6.75112   1
  -7   9  -9 6.44662 5.66848   4
  -8   9  -9 6.29281 8.36424   1
  -8   9  -9 -2.6984 6.10525   4
   8  -9   9 5.18194 4.06310   3
   6   8  -9 -5.8591 5.62911   1
  -6  -8   9 5.83029 5.11062   2
   5   8  -9 6.04025 4.36536   4
   5   8  -9 1.17182 4.65145   1
  -5  -8   9 -0.0674 4.63973   2
   4   8  -9 2.95090 4.47869   1
   4   8  -9 -3.6764 3.65107   4
  -4  -8   9 1.23212 4.56595   2
   3   8  -9 1.60186 4.07474   1
   3   8  -9 -8.2242 3.55613   4
  -3  -8   9 1.66734 3.99142   2
   2   8  -9 -2.2771 3.67126   1
   2   8  -9 5.42321 3.84525   4
  -2  -8   9 -1.1504 3.75248   2
  -2  -8   9 -1.3829 3.54416   3
   1   8  -9 -2.5880 3.42597   1
   1   8  -9 4.36815 3.54808   4
  -1  -8   9 -1.3060 2.68854   3
  -1  -8   9 -5.6318 3.63534   2
   0   8  -9 -0.4101 3.47964   4
   0   8  -9 2.86479 3.55658   1
   0  -8   9 6.41478 3.82228   2
   0  -8   9 1.05719 2.87997   3
  -1   8  -9 4.24400 3.78809   4
  -1   8  -9 1.01181 3.22396   1
   1  -8   9 -2.7613 3.47803   2
   1  -8   9 0.02991 2.83334   3
  -2   8  -9 9.28792 4.37861   4
  -2   8  -9 4.38583 3.30811   1
   2  -8   9 3.89751 3.73289   2
   2  -8   9 4.91616 2.68894   3
  -3   8  -9 -0.5369 4.07473   4
  -3   8  -9 -0.0695 3.28551   1
   3  -8   9 3.20881 3.50377   2
   3  -8   9 -0.8570 2.52987   3
  -4   8  -9 5.31822 3.72852   1
  -4   8  -9 5.55882 4.52269   4
   4  -8   9 4.45313 3.47434   2
  -5   8  -9 -7.5037 4.03356   4
  -5   8  -9 12.2909 4.36660   1
   5  -8   9 0.51664 2.99892   3
  -6   8  -9 -2.8971 5.48918   1
  -6   8  -9 -3.7988 4.90246   4
   6  -8   9 -0.7051 3.27061   3
  -7   8  -9 13.3297 6.16938   1
  -7   8  -9 8.20949 6.08394   4
   7  -8   9 6.42394 3.64088   3
  -8   8  -9 -6.2716 7.00217   4
  -8   8  -9 15.7102 7.39353   1
   8  -8   9 0.66196 3.93642   3
   7   7  -9 0.53325 5.50751   1
  -7  -7   9 -1.1064 5.33744   2
   6   7  -9 8.93839 4.33219   4
  -6  -7   9 -0.4896 4.53101   2
   5   7  -9 5.51886 4.34273   1
   5   7  -9 5.91453 3.73287   4
  -5  -7   9 5.17732 4.49162   2
   4   7  -9 2.26958 3.71885   4
   4   7  -9 2.43472 3.32023   1
  -4  -7   9 8.29477 4.43606   2
   3   7  -9 5.34778 3.37302   1
   3   7  -9 -3.9606 3.17926   4
  -3  -7   9 3.45201 2.96797   3
  -3  -7   9 -4.5107 3.24606   2
   2   7  -9 5.59109 2.99866   1
   2   7  -9 2.84676 3.28963   4
  -2  -7   9 -6.8369 5.59662   3
  -2  -7   9 -1.6642 3.50210   2
   1   7  -9 3.17463 2.85489   1
   1   7  -9 1.39793 3.66363   4
  -1  -7   9 2.47715 3.50084   2
  -1  -7   9 -1.2600 2.21403   3
   0   7  -9 5.95100 3.02768   1
   0   7  -9 11.6512 3.35520   4
   0  -7   9 4.81167 3.01774   3
   0  -7   9 14.6334 3.44662   2
  -1   7  -9 5.71127 3.05233   1
  -1   7  -9 11.0503 3.70398   4
   1  -7   9 8.23741 2.58025   3
   1  -7   9 7.16399 3.29993   2
  -2   7  -9 0.41167 2.62851   1
  -2   7  -9 6.84522 3.86096   4
   2  -7   9 3.87580 2.86259   2
   2  -7   9 3.12895 2.38085   3
  -3   7  -9 -3.9278 2.87564   1
  -3   7  -9 1.11069 3.62460   4
   3  -7   9 0.77277 3.05357   2
   3  -7   9 1.54506 2.10363   3
  -4   7  -9 1.88082 3.25812   1
  -4   7  -9 -3.4235 4.00526   4
   4  -7   9 -1.3021 2.39614   3
   4  -7   9 -2.0534 2.94557   2
  -5   7  -9 -0.8691 4.05237   4
  -5   7  -9 3.48555 3.82538   1
   5  -7   9 -0.8101 2.89811   3
  -6   7  -9 3.43676 4.83855   1
  -6   7  -9 8.50419 5.01429   4
   6  -7   9 -2.6784 3.07021   3
  -7   7  -9 7.32969 5.32847   1
  -7   7  -9 -5.0985 4.99490   4
   7  -7   9 -1.8370 3.11436   3
  -8   7  -9 2.23059 5.72446   4
  -8   7  -9 0.96284 6.76634   1
  -9   7  -9 -9.9584 7.60486   1
  -9   7  -9 -0.6739 5.61519   4
   9  -7   9 -4.5616 3.97408   3
   7   6  -9 0.26490 4.92861   1
  -7  -6   9 0.12111 4.54113   2
   6   6  -9 -2.7041 4.44722   1
   6   6  -9 4.63960 3.23044   4
  -6  -6   9 4.91709 4.75324   2
   5   6  -9 10.1520 3.66377   1
   5   6  -9 7.74478 3.25500   4
  -5  -6   9 6.87925 3.81225   2
   4   6  -9 5.46247 3.26426   1
   4   6  -9 4.98974 2.64152   4
  -4  -6   9 7.08196 2.85878   3
  -4  -6   9 7.29877 3.97198   2
   3   6  -9 10.1381 2.81419   4
   3   6  -9 7.40012 3.34420   1
  -3  -6   9 4.75297 3.28294   2
  -3  -6   9 2.55903 2.54549   3
   2   6  -9 -1.6688 2.61762   4
   2   6  -9 0.29772 2.75799   1
  -2  -6   9 0.69520 3.15742   2
   1   6  -9 5.03256 2.89616   1
   1   6  -9 1.39606 2.42078   4
  -1  -6   9 -0.2244 1.79361   3
  -1  -6   9 1.75305 2.86515   2
   0   6  -9 15.4485 2.99645   1
   0   6  -9 15.0974 3.16030   4
   0  -6   9 17.6025 3.73531   2
   0  -6   9 16.1485 2.47163   3
  -1   6  -9 21.7070 3.35206   4
  -1   6  -9 16.7466 3.19875   1
   1  -6   9 22.1616 3.32425   2
   1  -6   9 18.0466 2.82797   3
  -2   6  -9 5.73002 2.61438   1
  -2   6  -9 6.57098 3.25311   4
   2  -6   9 7.65871 2.47273   3
   2  -6   9 4.82857 2.73929   2
  -3   6  -9 0.63656 2.62373   1
  -3   6  -9 3.56397 3.54374   4
   3  -6   9 0.80049 2.15406   3
   3  -6   9 0.08605 2.59520   2
  -4   6  -9 -0.1518 2.94503   1
  -4   6  -9 -6.6461 3.48326   4
   4  -6   9 -0.3280 2.32290   3
   4  -6   9 1.16251 2.71987   2
  -5   6  -9 2.77954 3.66681   1
  -5   6  -9 4.29026 4.44341   4
   5  -6   9 3.27403 2.70007   3
  -6   6  -9 4.37319 4.47429   1
  -6   6  -9 -2.8186 4.13461   4
   6  -6   9 -4.0021 2.53851   3
  -7   6  -9 6.40082 5.37544   1
  -7   6  -9 -1.1450 4.60528   4
   7  -6   9 -5.7356 2.92555   3
  -8   6  -9 -0.8779 5.10700   4
  -8   6  -9 -2.3775 6.25322   1
   8  -6   9 -4.0363 3.48278   3
  -9   6  -9 -3.3527 7.61445   1
  -9   6  -9 2.93680 6.03933   4
   9  -6   9 -0.2572 3.93280   3
   8   5  -9 2.67059 5.19160   1
  -8  -5   9 -5.7895 4.86896   2
   7   5  -9 -3.7557 4.28495   1
  -7  -5   9 5.99920 4.73829   2
   6   5  -9 -2.2325 3.75232   1
   6   5  -9 -4.4471 5.14926   4
  -6  -5   9 2.38555 3.52828   2
   5   5  -9 12.7913 3.61454   1
   5   5  -9 15.1444 2.77758   4
  -5  -5   9 11.8039 4.37644   2
  -5  -5   9 12.9306 3.22618   3
   4   5  -9 25.4743 3.09836   4
   4   5  -9 22.8410 3.87704   1
  -4  -5   9 30.1129 3.76178   3
  -4  -5   9 26.3540 4.17915   2
   3   5  -9 -0.7829 2.57932   1
   3   5  -9 2.15449 2.24059   4
  -3  -5   9 3.39433 3.34026   2
  -3  -5   9 -0.5554 2.08639   3
   2   5  -9 1.76022 2.62684   1
   2   5  -9 -3.8329 2.08692   4
  -2  -5   9 1.35812 1.93853   3
  -2  -5   9 4.76648 2.97103   2
   1   5  -9 3.33582 2.30835   4
   1   5  -9 -1.0439 2.35594   1
  -1  -5   9 6.06075 2.77161   2
  -1  -5   9 5.31051 1.93597   3
   0   5  -9 31.8254 3.38164   4
   0  -5   9 31.2426 3.02065   3
   0  -5   9 25.6938 3.32956   2
  -1   5  -9 37.3024 3.68890   4
   1  -5   9 40.7647 4.78577   3
   1  -5   9 37.6844 3.35510   2
  -2   5  -9 13.1725 3.23784   4
   2  -5   9 17.6286 2.85573   2
   2  -5   9 11.3081 2.39661   3
  -3   5  -9 3.18627 2.56206   1
  -3   5  -9 -1.4999 3.32945   4
   3  -5   9 0.39154 2.36552   2
   3  -5   9 -1.4326 1.95948   3
  -4   5  -9 5.00480 3.68014   4
  -4   5  -9 -3.1983 2.70563   1
   4  -5   9 -0.4079 1.91595   3
  -5   5  -9 3.04007 4.13600   4
  -5   5  -9 0.65876 3.38057   1
   5  -5   9 -0.0689 2.33954   3
  -6   5  -9 -2.6070 4.40079   1
  -6   5  -9 -0.5286 4.26344   4
   6  -5   9 3.18993 2.53051   3
  -7   5  -9 0.74693 4.87671   4
  -7   5  -9 -0.9717 4.95414   1
   7  -5   9 -0.5853 2.75537   3
  -8   5  -9 -0.1964 5.17137   4
  -8   5  -9 4.78515 6.07584   1
   8  -5   9 1.97435 3.34070   3
  -9   5  -9 16.3787 6.57388   4
  -9   5  -9 0.12027 7.91036   1
   9  -5   9 -3.2992 3.88209   3
   9   4  -9 -2.6409 4.96924   1
  -9  -4   9 0.20142 5.57692   2
   8   4  -9 0.70222 4.27293   1
  -8  -4   9 7.46626 5.37279   2
   7   4  -9 -2.3530 3.58568   1
  -7  -4   9 -3.2102 4.08423   2
   6   4  -9 9.52458 2.44116   4
   6   4  -9 0.79139 3.65411   1
  -6  -4   9 6.28897 3.32494   3
  -6  -4   9 4.24349 3.74467   2
   5   4  -9 15.6123 3.62932   1
   5   4  -9 19.0563 2.48633   4
  -5  -4   9 16.8412 4.13674   2
  -5  -4   9 22.7600 3.21296   3
   4   4  -9 56.4420 3.30664   4
   4   4  -9 56.7604 4.90419   1
  -4  -4   9 58.5363 5.16032   2
  -4  -4   9 59.6583 3.94829   3
   3   4  -9 3.80583 1.95410   4
   3   4  -9 3.15431 2.54968   1
  -3  -4   9 4.15501 2.15903   3
  -3  -4   9 2.29256 2.35187   2
   2   4  -9 21.4797 3.18403   1
   2   4  -9 22.0472 2.64499   4
  -2  -4   9 27.1498 2.82177   3
  -2  -4   9 19.2625 3.41714   2
   1   4  -9 7.31485 2.87111   1
   1   4  -9 7.68208 2.26127   4
  -1  -4   9 9.05624 2.67242   2
  -1  -4   9 10.4754 2.43301   3
   0   4  -9 39.6626 3.53271   1
   0   4  -9 43.7942 3.38766   4
   0  -4   9 41.8729 3.54934   2
   0  -4   9 41.8257 2.91813   3
  -1   4  -9 57.3295 3.97909   4
  -1   4  -9 44.9559 3.62175   1
   1  -4   9 50.8409 3.40435   2
   1  -4   9 51.6242 3.40958   3
  -2   4  -9 24.7679 3.44600   4
   2  -4   9 25.1238 2.96154   2
   2  -4   9 26.2543 2.92874   3
  -3   4  -9 -0.8452 2.19715   1
   3  -4   9 -2.3536 1.73266   2
   3  -4   9 0.85160 1.59809   3
  -4   4  -9 0.84499 2.85802   1
   4  -4   9 -2.0546 1.82532   3
  -5   4  -9 -2.1736 3.84117   4
  -5   4  -9 2.19584 3.95316   1
   5  -4   9 -1.2697 2.16604   3
  -6   4  -9 4.68254 4.05846   1
  -6   4  -9 -5.7802 3.67979   4
   6  -4   9 -0.0893 2.56684   3
  -7   4  -9 -4.7899 4.27954   4
  -7   4  -9 1.58185 4.67067   1
   7  -4   9 -0.4085 2.97419   3
  -8   4  -9 4.26560 5.61925   4
  -8   4  -9 -6.2966 5.76331   1
   8  -4   9 -1.8126 3.51271   3
  -9   4  -9 1.65013 5.11598   4
  -9   4  -9 -0.1732 7.06896   1
   9   3  -9 6.00541 6.44903   1
   8   3  -9 7.78913 4.36321   1
  -8  -3   9 6.65243 5.05362   2
   7   3  -9 -1.3218 3.27859   1
  -7  -3   9 3.75056 4.46200   2
  -7  -3   9 -1.6220 3.49013   3
   6   3  -9 11.7228 3.54871   1
   6   3  -9 10.9652 2.11940   4
  -6  -3   9 5.67568 3.42157   2
  -6  -3   9 7.02972 3.05534   3
   5   3  -9 27.6993 4.24581   1
   5   3  -9 36.4505 2.57874   4
  -5  -3   9 31.5848 3.84570   3
  -5  -3   9 38.0359 4.99094   2
   4   3  -9 75.2186 3.36082   4
   4   3  -9 74.6209 5.10267   1
  -4  -3   9 80.1999 5.41258   2
  -4  -3   9 86.5053 4.44298   3
   3   3  -9 17.9055 2.94261   1
   3   3  -9 20.3830 2.09153   4
  -3  -3   9 16.6680 2.64680   3
  -3  -3   9 20.0073 3.72598   2
   2   3  -9 35.3712 2.48180   4
   2   3  -9 33.1246 3.47187   1
  -2  -3   9 33.2507 3.47917   2
  -2  -3   9 32.8915 2.78095   3
   1   3  -9 7.87379 2.33479   1
   1   3  -9 7.96834 1.91514   4
  -1  -3   9 7.13834 2.64300   2
   0   3  -9 51.3117 3.73323   1
   0   3  -9 53.4619 3.13625   4
   0  -3   9 50.9728 3.13290   3
   0  -3   9 50.6049 3.63245   2
  -1   3  -9 52.1067 3.54500   4
  -1   3  -9 50.7154 3.67092   1
   1  -3   9 52.1181 3.17094   3
   1  -3   9 49.4435 3.42476   2
  -2   3  -9 27.3699 3.21899   4
  -2   3  -9 30.6911 4.99982   1
   2  -3   9 26.2122 2.67053   2
   2  -3   9 24.7440 2.73185   3
  -3   3  -9 5.30595 2.69811   4
  -3   3  -9 4.59022 2.52056   1
   3  -3   9 0.48063 1.83946   3
  -4   3  -9 -2.4903 2.70415   1
  -4   3  -9 -6.2150 6.31638   4
   4  -3   9 0.53127 2.16095   3
  -5   3  -9 0.93400 3.59237   4
  -5   3  -9 3.45534 3.12473   1
   5  -3   9 0.90460 2.12349   3
  -6   3  -9 9.58519 4.50369   1
  -6   3  -9 4.38060 4.59318   4
   6  -3   9 3.64758 2.49249   3
  -7   3  -9 1.07018 4.66401   1
  -7   3  -9 5.53179 4.64414   4
   7  -3   9 -0.3479 2.84817   3
  -8   3  -9 3.01011 5.59042   1
   8  -3   9 5.94430 5.07873   4
   8  -3   9 -4.1937 3.62747   3
  -9   3  -9 -0.2278 6.36063   1
   9  -3   9 -2.2077 4.33349   3
   9  -3   9 -1.4608 6.27127   4
  10   2  -9 7.17089 5.35763   1
 -10  -2   9 6.00397 6.04619   2
   9   2  -9 9.84898 4.31332   1
  -9  -2   9 17.4271 6.23388   2
   8   2  -9 5.51335 4.05022   1
  -8  -2   9 8.17376 4.51909   2
   7   2  -9 -2.2026 3.24329   1
  -7  -2   9 2.11837 4.30671   2
  -7  -2   9 -0.8076 3.55594   3
   6   2  -9 10.7926 3.17217   1
   6   2  -9 15.4923 1.82147   4
  -6  -2   9 11.3302 3.95907   2
  -6  -2   9 15.1048 3.01813   3
   5   2  -9 74.2802 5.11459   1
   5   2  -9 74.1027 2.85788   4
  -5  -2   9 82.2272 4.60405   3
  -5  -2   9 75.1661 5.71702   2
   4   2  -9 61.9717 3.55472   4
   4   2  -9 64.8106 4.30861   1
   4   2  -9 64.1133 2.69386   4
  -4  -2   9 76.3216 3.95142   3
  -4  -2   9 81.1365 8.60413   2
   3   2  -9 68.5776 4.22864   1
  -3  -2   9 61.8185 3.53777   3
  -3  -2   9 60.5624 5.44948   2
   2   2  -9 22.5731 3.07836   1
   2   2  -9 21.9968 1.84253   4
  -2  -2   9 22.2870 1.40486   4
  -2  -2   9 23.8908 3.09019   2
  -2  -2   9 23.5268 2.32394   3
   1   2  -9 2.53797 1.85508   1
   1   2  -9 2.96898 1.47978   4
  -1  -2   9 2.06218 2.18912   2
   0   2  -9 50.8725 3.06043   4
   0   2  -9 54.6191 3.66239   1
   0  -2   9 50.2366 3.34789   2
   0  -2   9 55.1629 3.22255   3
  -1   2  -9 61.7806 3.49126   4
  -1   2  -9 57.4043 3.89734   1
   1  -2   9 54.9945 3.49773   2
   1  -2   9 59.8180 3.38550   3
  -2   2  -9 27.0948 3.15562   4
  -2   2  -9 18.7328 2.18944   2
  -3   2  -9 3.61373 2.43787   1
  -3   2  -9 5.02051 2.65368   4
   3  -2   9 1.58214 1.85224   3
  -4   2  -9 2.38417 3.03788   1
   4  -2   9 1.52617 1.87109   3
  -5   2  -9 3.77508 3.61487   1
  -5   2  -9 6.40359 3.75296   4
   5  -2   9 0.27295 2.34999   3
  -6   2  -9 8.88994 4.36982   1
   6  -2   9 2.32003 3.83769   4
   6  -2   9 3.97734 2.81649   3
  -7   2  -9 1.96913 4.55035   1
   7  -2   9 2.28967 4.21163   4
   7  -2   9 2.17933 3.08891   3
  -8   2  -9 -1.3631 6.06947   1
   8  -2   9 0.16101 5.44076   4
   8  -2   9 0.80677 3.61313   3
  10   1  -9 5.95731 5.10266   1
 -10  -1   9 -3.8633 5.93315   2
   9   1  -9 13.5518 4.50155   1
  -9  -1   9 5.34475 4.82836   2
  -9  -1   9 25.2361 9.76687   3
   8   1  -9 9.80535 3.99702   1
  -8  -1   9 7.72191 3.87991   2
  -8  -1   9 16.3384 4.61551   3
   7   1  -9 2.76675 3.51047   1
  -7  -1   9 2.68484 3.67595   2
  -7  -1   9 -2.0203 3.45952   3
   6   1  -9 7.16510 1.29634   4
   6   1  -9 1.69586 2.44133   1
  -6  -1   9 8.55768 3.28692   2
  -6  -1   9 6.78885 5.60072   3
   5   1  -9 41.5674 3.94643   1
  -5  -1   9 40.5961 4.23913   3
  -5  -1   9 43.5456 4.45256   2
   4   1  -9 132.009 6.07062   1
  -4  -1   9 144.983 5.70207   3
  -4  -1   9 122.627 6.51214   2
   3   1  -9 117.148 5.52314   1
  -3  -1   9 125.428 5.64837   2
  -3  -1   9 119.680 4.99036   3
   2   1  -9 30.5999 2.91410   1
  -2  -1   9 30.3443 3.05341   2
  -2  -1   9 30.2765 2.42526   3
   1   1  -9 7.63493 2.72836   1
   1   1  -9 9.27125 1.49987   4
  -1  -1   9 6.46746 2.07165   2
  -1  -1   9 7.92792 1.76408   4
   0   1  -9 40.8240 3.26194   1
   0   1  -9 42.2085 2.72350   4
   0  -1   9 41.7232 3.04609   2
   0  -1   9 38.2060 2.86312   3
  -1   1  -9 57.3471 3.40045   4
  -1   1  -9 50.6604 3.14771   2
  -1   1  -9 54.2786 3.52645   1
   1  -1   9 57.7118 3.20134   3
  -2   1  -9 28.1319 3.78038   1
  -2   1  -9 31.2867 2.34235   2
  -2   1  -9 36.2748 3.24947   4
  -3   1  -9 6.26962 2.84719   1
   3  -1   9 7.03873 1.91016   3
  -4   1  -9 0.33131 3.05921   1
   4  -1   9 3.80739 3.19240   4
   4  -1   9 1.16082 2.00946   3
  -5   1  -9 -0.8795 3.62157   1
   5  -1   9 -0.0248 3.80420   4
   5  -1   9 -1.8958 2.31533   3
  -6   1  -9 7.88324 4.03462   1
   6  -1   9 2.60839 3.71688   4
   6  -1   9 -3.1537 2.93413   3
  -7   1  -9 -1.9652 4.79554   1
   7  -1   9 6.28851 5.04295   4
   7  -1   9 -0.4557 3.47795   3
  -8   1  -9 4.71447 5.98122   1
   8  -1   9 -0.6091 5.83622   4
   8  -1   9 3.27758 3.67906   3
  11   0  -9 0.99081 5.66901   1
 -11   0   9 -1.3281 6.31105   2
  10   0  -9 14.3687 4.64142   1
 -10   0   9 6.26026 4.80471   2
 -10   0   9 7.86511 5.81575   3
   9   0  -9 20.7082 4.46575   1
  -9   0   9 14.5242 4.82692   2
  -9   0   9 15.9219 5.12532   3
   8   0  -9 37.1191 5.44168   1
  -8   0   9 44.1354 6.47321   3
  -8   0   9 39.3811 5.15253   2
   7   0  -9 2.40682 2.89592   1
  -7   0   9 2.29228 3.23070   2
  -7   0   9 1.54673 3.55499   3
   6   0  -9 9.75550 3.05521   1
  -6   0   9 5.98763 3.04009   3
  -6   0   9 10.6485 3.55876   2
  -5   0   9 69.5162 5.71014   2
  -5   0   9 70.3007 4.52369   3
   4   0  -9 199.478 7.66218   1
  -4   0   9 204.170 8.13950   2
  -3   0   9 130.189 5.77883   2
  -2   0   9 10.2098 2.50410   2
  -1   0   9 0.82615 2.76671   3
  -1   0   9 0.57866 1.13084   4
  -1   0   9 -0.7740 1.93562   2
   0   0  -9 29.2097 2.77759   2
   0   0  -9 30.1958 2.78562   1
   0   0   9 33.9424 2.39639   4
   0   0   9 31.7079 2.71154   3
  -1   0  -9 64.3746 3.31847   2
  -1   0  -9 67.0137 4.09332   1
   1   0   9 64.3941 3.68917   3
   1   0   9 64.5142 3.57755   4
  -2   0  -9 40.1742 2.35923   2
  -2   0  -9 43.7633 4.06771   1
   2   0   9 39.5890 3.48344   4
   2   0   9 50.6808 4.93150   3
  -3   0  -9 9.73454 3.43504   1
  -3   0  -9 6.62842 1.11687   2
   3   0   9 13.0099 3.37726   4
   3   0   9 8.18740 2.00280   3
  -4   0  -9 5.25185 3.25062   1
   4   0   9 1.63714 2.22228   3
   4   0   9 -0.8937 3.12749   4
  -5   0  -9 1.07644 3.87767   1
   5   0   9 3.16166 2.31564   3
   5   0   9 -7.5314 3.49103   4
  -6   0  -9 5.23524 4.42093   1
   6   0   9 2.69371 2.83183   3
   6   0   9 3.40420 4.06803   4
  -7   0  -9 6.28269 5.68035   1
   7   0   9 -1.0703 3.44088   3
   7   0   9 -5.3336 4.38692   4
  -8   0  -9 -3.5552 6.02232   1
   8   0   9 -3.3415 4.15168   3
   8   0   9 -0.7903 5.29465   4
  11  -1  -9 6.34656 5.33283   1
 -11   1   9 -6.6962 6.13116   2
 -11   1   9 -7.2417 6.45049   3
  10  -1  -9 11.3695 4.79150   1
 -10   1   9 15.8326 6.02410   3
 -10   1   9 14.0624 5.42203   2
   9  -1  -9 19.3293 4.63263   1
  -9   1   9 18.2051 5.33221   3
  -9   1   9 21.5940 4.51602   2
   8  -1  -9 36.9808 5.12493   1
  -8   1   9 47.0154 5.57260   3
  -8   1   9 35.3574 4.51586   2
   7  -1  -9 0.52853 2.63343   1
  -7   1   9 1.47180 2.93643   2
  -7   1   9 -0.0361 3.57772   3
   6  -1  -9 0.75350 2.71151   1
  -6   1   9 1.26365 2.54148   3
  -6   1   9 2.53164 2.93183   2
   5  -1  -9 66.4197 4.27898   1
  -5   1   9 57.5265 5.08461   2
  -5   1   9 58.6524 4.30584   3
  -4   1   9 145.430 6.94956   2
  -4   1   9 144.110 6.14557   3
   3  -1  -9 179.780 6.50606   1
  -3   1   9 171.241 6.97028   2
  -3   1   9 175.475 6.75087   3
   2  -1  -9 17.9088 2.12804   1
  -2   1   9 20.5389 1.63388   4
  -2   1   9 23.5427 3.00883   3
  -2   1   9 25.6342 2.94682   2
   1  -1  -9 24.0929 2.80991   2
  -1   1   9 26.0803 2.81719   3
  -1   1   9 21.1514 1.69271   4
   0  -1  -9 38.6283 3.31467   1
   0  -1  -9 44.9323 3.15878   2
   0   1   9 37.5658 3.03968   3
   0   1   9 42.4863 2.75425   4
  -1  -1  -9 42.4076 2.90246   2
  -1  -1  -9 43.1216 3.67415   1
   1   1   9 48.7069 3.07090   4
   1   1   9 47.4604 3.25835   3
  -2  -1  -9 25.5796 4.14063   1
  -2  -1  -9 17.6844 1.99622   2
   2   1   9 22.3292 3.04166   4
  -3  -1  -9 6.23062 1.47495   2
  -3  -1  -9 4.07868 3.09901   1
   3   1   9 5.86138 2.36972   3
   3   1   9 12.6915 3.31086   4
  -4  -1  -9 -2.1918 3.33288   1
   4   1   9 4.78183 3.17831   4
   4   1   9 0.18393 2.31358   3
  -5  -1  -9 -1.6699 4.19445   1
   5   1   9 0.85831 3.51655   4
   5   1   9 3.96447 2.83240   3
  -6  -1  -9 9.57989 5.28961   1
   6   1   9 12.9051 3.38608   3
   6   1   9 -1.2020 4.32594   4
  -7  -1  -9 -2.4744 6.67935   1
   7   1   9 1.40883 3.76680   3
   7   1   9 -1.1295 4.62791   4
  11  -2  -9 -4.9737 4.67843   1
 -11   2   9 2.99543 5.59671   2
 -11   2   9 2.67452 6.44982   3
  10  -2  -9 2.36521 4.27439   1
 -10   2   9 7.01619 6.13360   3
 -10   2   9 12.9023 5.36668   2
   9  -2  -9 28.2791 4.97084   1
  -9   2   9 34.2462 5.90014   2
  -9   2   9 34.4725 6.15434   3
   8  -2  -9 37.2468 4.43464   1
  -8   2   9 48.1141 5.99140   3
  -8   2   9 44.6017 5.91862   2
   7  -2  -9 16.4504 3.34842   1
  -7   2   9 13.3719 3.50865   2
  -7   2   9 17.8784 3.87436   3
   6  -2  -9 3.20449 2.07627   1
  -6   2   9 0.60729 2.86724   2
  -6   2   9 3.08999 3.68458   3
  -5   2   9 56.9560 5.36900   2
  -5   2   9 68.2724 4.45201   3
   4  -2  -9 193.376 6.86369   1
  -4   2   9 184.584 7.34608   3
  -4   2   9 189.606 7.80474   2
   3  -2  -9 174.307 6.93529   2
   3  -2  -9 176.398 6.37848   1
  -3   2   9 161.724 6.55090   3
   2  -2  -9 49.1630 3.12106   1
   2  -2  -9 51.9098 3.45176   2
  -2   2   9 42.6762 1.95404   4
  -2   2   9 49.6307 3.42871   3
  -2   2   9 44.9685 2.94500   4
   1  -2  -9 16.2173 2.77321   2
  -1   2   9 12.6597 2.29880   3
  -1   2   9 12.4098 1.54046   4
   0  -2  -9 23.1834 2.62333   2
   0  -2  -9 19.7597 3.24785   1
   0   2   9 17.2893 2.09831   4
   0   2   9 20.0743 2.51504   3
  -1  -2  -9 20.3498 2.42553   2
  -1  -2  -9 20.1398 3.99686   1
   1   2   9 21.6637 2.48880   4
   1   2   9 19.4460 2.58932   3
  -2  -2  -9 16.2543 3.85002   1
  -2  -2  -9 15.9259 2.02426   2
   2   2   9 15.2046 3.03486   4
  -3  -2  -9 8.49336 2.01103   2
  -3  -2  -9 8.75489 3.60497   1
   3   2   9 7.10607 2.41840   3
   3   2   9 8.99519 3.22219   4
  -4  -2  -9 -1.6982 3.85224   1
   4   2   9 0.23989 3.07216   4
   4   2   9 3.91619 2.75022   3
  -5  -2  -9 -1.5326 4.46058   1
   5   2   9 3.96223 3.66095   4
   5   2   9 4.41226 3.06318   3
  -6  -2  -9 8.72006 6.39100   1
   6   2   9 -0.4221 4.31970   4
   6   2   9 5.76518 3.73929   3
  -7  -2  -9 6.56440 6.48443   1
   7   2   9 -2.4510 5.14996   4
   7   2   9 2.08723 4.53354   3
  12  -3  -9 0.89753 5.58531   1
 -12   3   9 4.15734 6.69148   2
 -12   3   9 8.96111 8.47798   3
  11  -3  -9 -6.9119 4.87360   1
 -11   3   9 3.11474 5.24655   2
 -11   3   9 6.15370 7.34231   3
  10  -3  -9 14.8962 4.70820   1
 -10   3   9 6.06668 4.52434   2
 -10   3   9 4.60934 6.36771   3
   9  -3  -9 39.9546 4.98665   1
  -9   3   9 39.8916 6.71787   3
  -9   3   9 29.4292 4.94254   2
   8  -3  -9 51.8686 4.95378   1
  -8   3   9 51.0039 6.39879   3
  -8   3   9 59.9478 5.77536   2
   7  -3  -9 23.9069 3.49901   1
  -7   3   9 22.4494 4.19902   3
  -7   3   9 16.9410 4.06130   2
   6  -3  -9 1.26658 2.28474   1
  -6   3   9 0.83735 2.73170   3
  -6   3   9 2.69398 3.06335   2
   5  -3  -9 50.3616 8.09976   2
   5  -3  -9 43.4551 3.12717   1
  -5   3   9 34.6924 4.77005   3
   4  -3  -9 109.038 5.65418   2
   4  -3  -9 107.810 4.86010   1
  -4   3   9 93.2899 5.26766   3
   3  -3  -9 89.3430 4.24089   1
   3  -3  -9 87.6172 4.77331   2
  -3   3   9 84.8917 4.70882   3
  -3   3   9 77.8303 3.41717   4
  -3   3   9 79.4738 2.88407   4
   2  -3  -9 48.9604 3.28705   1
   2  -3  -9 46.0047 3.75974   2
  -2   3   9 44.3029 3.67034   3
  -2   3   9 43.4532 2.21002   4
   1  -3  -9 7.39141 2.43042   1
   1  -3  -9 0.96346 1.97808   2
  -1   3   9 6.08115 1.43586   4
  -1   3   9 4.12515 2.04563   3
   0  -3  -9 7.11513 2.09413   2
   0  -3  -9 5.42495 2.43881   1
   0   3   9 7.64571 2.20526   3
   0   3   9 8.97022 1.74832   4
  -1  -3  -9 14.3778 3.62100   1
  -1  -3  -9 16.0882 2.53730   2
   1   3   9 14.0605 3.05970   3
   1   3   9 17.4609 2.44992   4
  -2  -3  -9 13.2197 3.87852   1
  -2  -3  -9 14.2753 2.20625   2
   2   3   9 11.7098 2.98993   3
  -3  -3  -9 4.84055 2.15538   2
  -3  -3  -9 6.35246 4.17054   1
   3   3   9 -0.7791 2.90628   4
   3   3   9 6.19390 2.54501   3
  -4  -3  -9 -8.7792 4.16556   1
   4   3   9 -0.6759 3.29853   4
   4   3   9 6.57882 2.93237   3
  -5  -3  -9 3.13584 4.87790   1
   5   3   9 -2.8723 3.79850   4
   5   3   9 4.11670 3.24391   3
  -6  -3  -9 -2.0823 7.73929   1
   6   3   9 8.87752 4.42049   3
   6   3   9 2.56001 5.16032   4
  12  -4  -9 -4.1668 5.39212   1
  12  -4  -9 -7.4981 6.02858   2
 -12   4   9 12.5505 6.14473   2
 -12   4   9 1.63732 9.31302   3
  11  -4  -9 -0.5276 4.49048   1
 -11   4   9 3.85085 4.77791   2
 -11   4   9 6.91261 7.73764   3
  10  -4  -9 18.1190 4.23524   1
 -10   4   9 13.6391 4.39096   2
 -10   4   9 2.30157 6.21622   3
   9  -4  -9 26.3257 4.37567   1
   9  -4  -9 18.5156 5.00357   2
  -9   4   9 22.8789 6.13676   3
  -9   4   9 31.9842 5.27352   2
   8  -4  -9 61.2653 6.14451   2
  -8   4   9 66.7508 6.29333   3
   7  -4  -9 35.5839 3.64924   1
   7  -4  -9 36.0925 5.14366   2
  -7   4   9 35.3450 2.64276   4
  -7   4   9 37.2416 5.13617   3
   6  -4  -9 3.04087 3.05412   2
   6  -4  -9 1.55654 1.90899   1
  -6   4   9 0.70331 2.84274   3
  -6   4   9 -0.1457 1.52034   4
   5  -4  -9 20.0783 3.70714   2
   5  -4  -9 22.8759 2.95647   1
  -5   4   9 23.5828 2.13155   4
  -5   4   9 22.8205 3.57479   3
   4  -4  -9 70.8809 4.89708   2
   4  -4  -9 79.7989 4.10803   1
  -4   4   9 83.0915 5.03448   3
  -4   4   9 75.1896 3.24227   4
   3  -4  -9 56.1643 4.41970   2
   3  -4  -9 60.3515 3.50393   1
  -3   4   9 57.5259 2.69914   4
   2  -4  -9 48.3881 3.49995   1
   2  -4  -9 47.3939 5.49692   2
  -2   4   9 44.4220 2.55587   4
  -2   4   9 42.7510 4.25065   3
   1  -4  -9 3.70824 2.13116   2
   1  -4  -9 9.02785 2.70570   1
  -1   4   9 9.03524 1.83088   4
  -1   4   9 6.53279 2.77137   3
   0  -4  -9 6.50649 2.28567   2
   0   4   9 2.79385 1.84245   4
  -1  -4  -9 11.8762 3.34441   1
  -1  -4  -9 12.3978 2.21752   2
   1   4   9 4.79939 3.04134   3
   1   4   9 5.85779 2.38360   4
  -2  -4  -9 6.90507 2.41408   2
  -2  -4  -9 4.97990 4.16322   1
   2   4   9 9.09240 2.98322   3
   2   4   9 7.79565 2.80516   4
  -3  -4  -9 2.63760 2.38161   2
  -3  -4  -9 0.20363 4.23616   1
   3   4   9 1.61912 3.18308   4
   3   4   9 9.08659 3.24038   3
  -4  -4  -9 -0.3890 5.00879   1
   4   4   9 0.66694 3.38889   3
   4   4   9 1.00343 3.46545   4
  -5  -4  -9 5.46293 6.26985   1
   5   4   9 5.59855 4.16966   3
   5   4   9 1.48994 3.79964   4
  -6  -4  -9 5.12910 7.53954   1
   6   4   9 -2.2676 4.69441   4
  12  -5  -9 9.41750 6.54288   2
  12  -5  -9 -5.1880 5.22309   1
 -12   5   9 -2.4312 8.82550   3
  11  -5  -9 0.49232 4.48423   1
  11  -5  -9 -7.2364 5.43501   2
 -11   5   9 2.68059 7.38572   3
  10  -5  -9 8.57575 3.71046   1
  10  -5  -9 12.6276 4.93482   2
 -10   5   9 -1.0774 6.42850   3
   9  -5  -9 33.1043 5.05728   2
   9  -5  -9 34.1359 4.33963   1
  -9   5   9 37.5661 6.11273   3
   8  -5  -9 46.5875 5.02025   2
   8  -5  -9 42.2731 4.01109   1
  -8   5   9 49.4570 4.64036   4
  -8   5   9 48.4387 5.92900   3
   7  -5  -9 21.8482 4.03972   2
   7  -5  -9 38.0919 3.52658   1
  -7   5   9 28.8729 4.46770   3
  -7   5   9 31.5984 3.33554   4
   6  -5  -9 34.2108 3.75188   1
   6  -5  -9 37.5404 5.05965   2
  -6   5   9 36.8025 4.35293   3
  -6   5   9 31.5182 3.06328   4
   5  -5  -9 2.75594 1.96255   1
   5  -5  -9 -2.0450 2.62056   2
  -5   5   9 -0.4479 2.98476   3
  -5   5   9 0.79968 1.98245   4
   4  -5  -9 45.7239 4.15605   2
   4  -5  -9 50.4722 3.46703   1
  -4   5   9 46.2281 4.32164   3
  -4   5   9 44.0835 2.85303   4
   3  -5  -9 45.0252 3.49669   1
   3  -5  -9 54.6680 4.94776   2
  -3   5   9 36.6058 2.81993   4
  -3   5   9 49.3948 4.07128   3
   2  -5  -9 39.5810 3.73914   2
  -2   5   9 37.3583 2.72393   4
  -2   5   9 34.0333 4.08976   3
   1  -5  -9 7.17580 3.30372   1
   1  -5  -9 4.96787 2.44036   2
  -1   5   9 3.90814 1.97778   4
  -1   5   9 4.11675 2.58220   3
   0  -5  -9 9.98540 3.35723   1
   0  -5  -9 4.29515 2.43462   2
   0   5   9 3.40362 2.85810   3
   0   5   9 5.26928 2.40075   4
  -1  -5  -9 3.38807 4.33686   1
  -1  -5  -9 -4.8424 2.42195   2
   1   5   9 4.93080 2.80486   4
   1   5   9 1.59323 2.98569   3
  -2  -5  -9 7.56609 2.76457   2
  -2  -5  -9 -1.1903 4.15809   1
   2   5   9 1.63130 3.07216   3
   2   5   9 7.04011 2.91814   4
  -3  -5  -9 1.15799 2.98475   2
  -3  -5  -9 0.61160 5.26569   1
   3   5   9 0.38987 3.77718   3
   3   5   9 5.22676 3.25746   4
  -4  -5  -9 1.28126 5.99395   1
   4   5   9 -7.1829 3.50025   4
   4   5   9 -2.0237 3.90616   3
  -5  -5  -9 -1.2559 7.02370   1
   5   5   9 -6.5797 6.16764   4
  12  -6  -9 -1.5410 5.59319   2
 -12   6   9 -16.598 14.2343   3
  11  -6  -9 -8.3080 4.16026   1
  11  -6  -9 -2.4084 4.77433   2
 -11   6   9 5.82576 8.01645   3
  10  -6  -9 -3.9874 4.22239   2
  10  -6  -9 5.84422 3.92129   1
 -10   6   9 2.50237 6.25817   3
   9  -6  -9 32.0452 4.13292   1
   9  -6  -9 25.1450 5.42329   2
  -9   6   9 35.7864 6.59935   3
   8  -6  -9 28.3720 3.60657   1
   8  -6  -9 26.5646 4.59703   2
  -8   6   9 27.9908 5.05219   3
  -8   6   9 31.2840 3.65674   4
   7  -6  -9 11.3100 3.19182   2
   7  -6  -9 17.2889 3.11014   1
  -7   6   9 14.6228 3.01242   4
  -7   6   9 16.3211 4.11761   3
   6  -6  -9 2.14079 2.24127   1
   6  -6  -9 2.08098 3.38889   2
  -6   6   9 2.57885 3.21876   3
  -6   6   9 -1.5990 2.49601   4
   5  -6  -9 8.48226 3.13436   2
   5  -6  -9 14.2066 2.54969   1
  -5   6   9 5.46877 3.02365   3
  -5   6   9 8.42208 2.55804   4
   4  -6  -9 36.9419 4.46607   2
   4  -6  -9 40.7742 3.61867   1
  -4   6   9 37.5634 4.76496   3
  -4   6   9 46.2577 3.27384   4
   3  -6  -9 50.0627 4.10684   1
   3  -6  -9 56.7781 4.44306   2
  -3   6   9 44.5337 4.62647   3
  -3   6   9 49.5329 3.31978   4
   2  -6  -9 10.9197 3.03331   2
   2  -6  -9 14.1308 3.55572   1
  -2   6   9 17.4359 3.38768   3
  -2   6   9 22.0388 2.55740   4
   1  -6  -9 4.80194 3.70051   1
   1  -6  -9 0.14209 2.48790   2
  -1   6   9 3.60564 2.43186   4
  -1   6   9 0.90311 3.32084   3
   0  -6  -9 0.83401 4.06952   1
   0  -6  -9 -0.7587 2.60967   2
   0   6   9 -1.4667 3.21533   3
   0   6   9 -1.0625 2.49128   4
  -1  -6  -9 -3.5351 4.66517   1
  -1  -6  -9 -0.1456 2.60140   2
   1   6   9 0.43907 2.72542   4
   1   6   9 6.36621 3.54324   3
  -2  -6  -9 5.19323 3.14874   2
  -2  -6  -9 2.73470 5.04657   1
   2   6   9 2.87196 3.04291   4
   2   6   9 5.22028 4.12211   3
  -3  -6  -9 -2.6859 3.54312   2
  -3  -6  -9 6.63848 6.35873   1
   3   6   9 8.11395 4.75840   3
   3   6   9 2.24316 3.63873   4
  -4  -6  -9 1.87110 6.88752   1
   4   6   9 3.72192 3.80539   4
  12  -7  -9 -7.4215 6.47437   2
 -12   7   9 1.10870 10.0552   3
  11  -7  -9 -7.6284 5.31174   2
 -11   7   9 2.64364 8.06363   3
  10  -7  -9 3.08177 4.70483   2
 -10   7   9 10.6720 6.79545   3
   9  -7  -9 15.1941 5.03320   2
   9  -7  -9 21.4121 3.59045   1
  -9   7   9 28.0125 5.78487   3
   8  -7  -9 30.8353 5.12277   2
   8  -7  -9 30.3664 3.72166   1
  -8   7   9 32.9015 4.34721   4
  -8   7   9 26.9719 5.12126   3
   7  -7  -9 8.68466 3.76174   2
   7  -7  -9 8.25769 2.81820   1
  -7   7   9 9.20919 3.31856   4
  -7   7   9 11.8141 4.34282   3
   6  -7  -9 2.91181 2.51777   1
   6  -7  -9 -4.4262 2.95810   2
  -6   7   9 6.11342 3.08091   4
  -6   7   9 -0.8985 3.18816   3
   5  -7  -9 1.69086 2.37782   1
   5  -7  -9 0.67938 2.96915   2
  -5   7   9 0.08616 2.67047   4
  -5   7   9 6.60595 3.38910   3
   4  -7  -9 26.6461 4.14646   2
   4  -7  -9 23.9226 3.28709   1
  -4   7   9 18.4844 3.75951   3
  -4   7   9 27.1310 3.37642   4
   3  -7  -9 25.4954 3.46944   1
   3  -7  -9 21.4724 3.56387   2
  -3   7   9 18.1700 4.14141   3
   2  -7  -9 15.9839 4.06999   1
   2  -7  -9 7.82400 3.12872   2
  -2   7   9 7.33611 3.48944   3
  -2   7   9 6.90637 2.64111   4
   1  -7  -9 -1.6360 2.66862   2
   1  -7  -9 2.88229 4.09781   1
  -1   7   9 -0.2420 3.51019   3
  -1   7   9 4.74707 2.70181   4
   0  -7  -9 -7.3920 2.67969   2
   0  -7  -9 -5.3543 4.78112   1
   0   7   9 2.71110 3.73210   3
   0   7   9 0.95186 2.70874   4
  -1  -7  -9 0.44902 3.21533   2
  -1  -7  -9 2.75134 5.42856   1
   1   7   9 -6.5477 3.04816   4
   1   7   9 9.71734 4.35232   3
  -2  -7  -9 -0.5129 3.36260   2
  -2  -7  -9 0.96429 6.22257   1
   2   7   9 -5.1683 3.53341   4
   2   7   9 6.52299 4.59240   3
  -3  -7  -9 -2.7019 3.76097   2
  -3  -7  -9 0.22742 7.62585   1
   3   7   9 0.73994 3.80020   4
  11  -8  -9 -3.2460 5.15271   2
 -11   8   9 1.88060 7.93541   3
  10  -8  -9 3.09959 4.12380   2
 -10   8   9 2.36384 5.94601   3
   9  -8  -9 8.45804 4.53895   2
  -9   8   9 18.5135 5.68346   3
   8  -8  -9 12.5236 4.51957   2
  -8   8   9 8.64004 4.48667   3
  -8   8   9 4.58365 4.18459   4
   7  -8  -9 5.60582 3.74102   2
  -7   8   9 6.34494 3.86552   4
  -7   8   9 11.4128 4.39645   3
   6  -8  -9 -4.5310 2.56856   1
   6  -8  -9 2.55570 3.20743   2
  -6   8   9 1.94390 3.59718   3
  -6   8   9 -0.6461 3.25639   4
   5  -8  -9 1.69632 3.01476   1
   5  -8  -9 -1.2770 3.00623   2
  -5   8   9 -1.1106 3.96001   3
  -5   8   9 -6.1604 3.87585   4
   4  -8  -9 3.17909 3.27176   1
   4  -8  -9 2.81236 3.06741   2
  -4   8   9 3.91952 3.81416   3
  -4   8   9 4.88558 3.24077   4
   3  -8  -9 9.02616 3.07130   2
   3  -8  -9 11.8480 4.78274   1
  -3   8   9 11.1681 3.87825   3
  -3   8   9 10.7738 3.17779   4
   2  -8  -9 6.04613 3.16440   2
   2  -8  -9 7.54126 4.23689   1
  -2   8   9 0.92091 3.16659   4
  -2   8   9 12.6710 4.36245   3
   1  -8  -9 -1.7227 4.65783   1
   1  -8  -9 2.62905 2.76817   2
  -1   8   9 -2.8099 2.81586   4
  -1   8   9 -2.3343 4.08351   3
   0  -8  -9 -3.9715 2.99579   2
   0  -8  -9 -0.3633 5.27938   1
   0   8   9 7.34890 3.48070   4
   0   8   9 4.68745 5.08026   3
  -1  -8  -9 -4.0421 6.05705   1
  -1  -8  -9 1.02664 3.82133   2
   1   8   9 2.22661 5.15200   3
   1   8   9 1.94901 3.52246   4
  -2  -8  -9 1.48417 4.17547   2
  -2  -8  -9 3.38902 7.31204   1
   2   8   9 3.31949 4.21388   4
  11  -9  -9 -5.8191 5.12797   2
 -11   9   9 -3.0293 7.30289   3
 -10   9   9 9.40374 7.39872   3
   9  -9  -9 0.89498 4.53069   2
  -9   9   9 3.60627 5.46380   3
   8  -9  -9 6.78691 3.90166   2
  -8   9   9 14.0720 7.25240   4
  -8   9   9 18.1785 4.94275   3
   7  -9  -9 10.1498 3.56044   2
  -7   9   9 8.77501 5.05767   4
  -7   9   9 7.31564 4.85580   3
   6  -9  -9 4.34366 3.38922   2
  -6   9   9 -0.7819 4.83981   4
  -6   9   9 0.69224 4.44937   3
   5  -9  -9 -3.9276 3.03467   2
  -5   9   9 0.48180 4.20759   3
  -5   9   9 -6.9761 3.80540   4
   4  -9  -9 7.05124 4.17252   1
   4  -9  -9 2.46475 3.45016   2
  -4   9   9 4.47806 3.81505   4
  -4   9   9 3.73679 4.40776   3
   3  -9  -9 4.30948 3.14224   2
   3  -9  -9 -1.7837 5.31301   1
  -3   9   9 1.09823 3.47591   4
  -3   9   9 3.74941 4.50893   3
   2  -9  -9 -0.9119 4.87578   1
   2  -9  -9 4.03050 3.20419   2
  -2   9   9 4.85909 4.75210   3
  -2   9   9 -2.5039 3.35772   4
   1  -9  -9 4.55597 5.72502   1
   1  -9  -9 6.20076 3.43795   2
  -1   9   9 7.88194 5.35350   3
  -1   9   9 -4.0221 3.14707   4
   0  -9  -9 -4.6537 6.20267   1
   0  -9  -9 -0.4128 3.58448   2
   0   9   9 0.08755 3.45322   4
   0   9   9 4.29934 5.55393   3
  -1  -9  -9 -1.8225 4.19703   2
  -1  -9  -9 -4.7675 8.03540   1
   1   9   9 3.02375 4.52133   4
  10 -10  -9 11.5033 4.97519   2
 -10  10   9 14.7251 7.18451   3
   9 -10  -9 1.10974 6.31446   2
  -9  10   9 4.00823 9.22065   4
  -9  10   9 1.84363 9.84585   3
   8 -10  -9 4.02907 4.25084   2
  -8  10   9 -5.5761 5.29644   3
   7 -10  -9 -0.4986 4.03705   2
  -7  10   9 5.80522 4.88997   3
  -7  10   9 -5.1124 4.86869   4
   6 -10  -9 0.06141 3.24770   2
  -6  10   9 -3.5034 4.55411   3
  -6  10   9 0.47884 5.45805   4
   5 -10  -9 -6.4805 3.39011   2
  -5  10   9 -0.8974 4.95787   3
  -5  10   9 -4.6802 4.41693   4
   4 -10  -9 -2.9851 3.32719   2
  -4  10   9 2.28715 4.17014   4
  -4  10   9 7.73440 5.49462   3
   3 -10  -9 3.55464 3.71900   2
  -3  10   9 11.5525 4.32621   4
  -3  10   9 4.39064 5.68050   3
   2 -10  -9 -6.3885 3.37137   2
  -2  10   9 0.31093 4.10452   4
  -2  10   9 3.40040 5.46537   3
   1 -10  -9 9.65521 4.32022   2
   1 -10  -9 12.9574 7.38676   1
  -1  10   9 0.07006 5.93598   3
  -1  10   9 -0.3269 4.09807   4
   0 -10  -9 3.49555 8.13553   1
   0 -10  -9 4.97040 4.58293   2
   0  10   9 -3.9282 6.30880   4
   9 -11  -9 3.30452 4.34215   2
  -9  11   9 4.72037 5.79541   3
   8 -11  -9 0.82377 4.08586   2
  -8  11   9 6.06152 5.90316   3
  -8  11   9 2.36163 6.33451   4
   7 -11  -9 -0.6572 4.22211   2
  -7  11   9 4.10525 5.71063   4
  -7  11   9 -6.0725 5.62985   3
  -6  11   9 3.16098 5.71399   4
  -6  11   9 10.7243 5.69407   3
   5 -11  -9 -7.6549 6.23614   2
  -5  11   9 -8.0203 5.75873   3
  -5  11   9 -0.7169 5.18263   4
   4 -11  -9 -1.1046 5.97455   2
  -4  11   9 -1.1850 6.31748   3
  -4  11   9 -0.7577 4.69166   4
  -3  11   9 7.35124 4.79861   4
   2 -11  -9 -3.7621 3.92673   2
  -2  11   9 -2.5975 7.37016   3
  -2  11   9 9.73242 4.76251   4
   7 -12  -9 -1.7204 4.41103   2
  -7  12   9 10.4568 6.50341   3
  -7  12   9 -0.3162 6.29499   4
   6 -12  -9 1.32134 4.44094   2
  -6  12   9 9.05936 6.94763   4
   5 -12  -9 1.98785 4.00878   2
  -5  12   9 -11.771 7.20933   3
  -5  12   9 -9.6867 6.00648   4
   1  11 -10 1.55641 5.82506   4
  -1 -11  10 -0.3106 5.67856   2
   0  11 -10 2.49070 5.90688   1
   0  11 -10 -4.6795 5.82299   4
   0 -11  10 -6.1765 6.10861   2
  -1  11 -10 -9.7200 5.89031   4
  -1  11 -10 -4.5220 5.28767   1
   1 -11  10 -5.3851 4.45239   3
  -2  11 -10 -2.0053 5.35752   1
  -2  11 -10 5.38508 6.23519   4
   2 -11  10 -9.7163 5.76685   2
   2 -11  10 1.43797 4.61947   3
  -3  11 -10 17.6442 5.67929   1
  -3  11 -10 4.93469 7.11599   4
   3 -11  10 -8.1373 4.71742   3
   3 -11  10 -14.815 6.06991   2
  -4  11 -10 1.10463 6.33103   4
  -4  11 -10 13.6562 5.79214   1
   4 -11  10 10.3567 4.54859   3
  -5  11 -10 12.9380 7.27996   4
  -5  11 -10 0.53987 7.27548   1
   5 -11  10 0.81109 4.35343   3
  -3 -10  10 -8.6082 5.54115   2
   2  10 -10 2.10486 5.14350   4
   2  10 -10 4.48854 5.58154   1
  -2 -10  10 -4.8730 10.7639   2
   1  10 -10 -1.1723 5.22311   4
   1  10 -10 2.17566 5.62347   1
  -1 -10  10 7.17151 5.55912   2
   0  10 -10 11.3028 5.43896   4
   0  10 -10 -0.3223 4.97883   1
   0 -10  10 -6.6347 5.47418   2
   0 -10  10 8.14415 3.96434   3
  -1  10 -10 -1.7428 5.04284   1
  -1  10 -10 2.16762 5.62462   4
   1 -10  10 -0.3423 3.99040   3
   1 -10  10 -3.4949 5.48245   2
  -2  10 -10 0.09598 4.95290   4
  -2  10 -10 -0.3719 4.94090   1
   2 -10  10 4.06775 5.31963   2
   2 -10  10 -2.3410 3.90378   3
  -3  10 -10 -2.3738 5.95963   4
  -3  10 -10 3.98693 5.16891   1
   3 -10  10 3.24842 5.50151   2
   3 -10  10 -3.8087 3.73667   3
  -4  10 -10 6.66307 4.96816   1
  -4  10 -10 4.16670 6.33406   4
   4 -10  10 5.59229 3.79803   3
  -5  10 -10 0.93840 5.74657   1
  -5  10 -10 -5.0416 6.29155   4
   5 -10  10 10.4088 3.96769   3
  -6  10 -10 1.43416 6.89727   4
  -6  10 -10 1.23870 6.95339   1
   6 -10  10 -6.2335 4.04796   3
  -7  10 -10 7.03423 7.02642   4
   7 -10  10 -6.2742 4.20590   3
   4   9 -10 -1.3691 5.21605   1
  -4  -9  10 0.13248 5.56661   2
   3   9 -10 0.46827 4.88067   1
   3   9 -10 4.69628 5.00206   4
  -3  -9  10 -1.6319 5.51449   2
   2   9 -10 -1.9178 4.64464   1
   2   9 -10 0.61255 4.72237   4
  -2  -9  10 -3.9664 4.74244   2
   1   9 -10 -4.0392 4.52882   1
   1   9 -10 11.4824 4.73323   4
  -1  -9  10 -1.9815 4.60866   2
  -1  -9  10 7.35401 3.61131   3
   0   9 -10 5.96700 4.82396   4
   0   9 -10 1.52771 3.86269   1
   0  -9  10 13.7711 5.03012   2
   0  -9  10 -4.5105 2.99830   3
  -1   9 -10 9.20696 4.86083   4
  -1   9 -10 -0.7593 4.15649   1
   1  -9  10 1.59009 4.76876   2
   1  -9  10 2.42538 3.35265   3
  -2   9 -10 2.69077 5.14660   4
  -2   9 -10 -5.4701 3.73292   1
   2  -9  10 -1.2957 2.92687   3
   2  -9  10 2.70875 4.74944   2
  -3   9 -10 2.79070 4.15239   1
  -3   9 -10 1.39021 5.31019   4
   3  -9  10 7.69960 4.74885   2
   3  -9  10 -4.8828 3.13315   3
  -4   9 -10 5.58701 4.57607   1
  -4   9 -10 5.39014 5.28634   4
   4  -9  10 4.34752 3.06103   3
  -5   9 -10 3.44919 5.17321   1
  -5   9 -10 -4.8642 5.23682   4
   5  -9  10 3.57870 3.46334   3
  -6   9 -10 -0.9993 6.25848   1
  -6   9 -10 -0.7180 5.61480   4
  -7   9 -10 -15.092 11.5332   4
  -7   9 -10 -10.300 7.02480   1
   7  -9  10 -7.7281 4.21334   3
   5   8 -10 1.54442 5.02754   1
  -5  -8  10 0.28770 4.39161   2
   4   8 -10 -1.5440 4.24735   1
   4   8 -10 -7.0467 4.66152   4
  -4  -8  10 3.85483 5.39442   2
   3   8 -10 9.07586 4.64611   4
   3   8 -10 3.34845 4.58587   1
  -3  -8  10 5.46604 5.24177   2
   2   8 -10 -0.4975 3.95972   1
   2   8 -10 12.7960 4.26066   4
  -2  -8  10 4.45244 3.57804   3
  -2  -8  10 7.50627 4.84033   2
   1   8 -10 -3.1440 4.03313   4
   1   8 -10 7.25969 4.08011   1
  -1  -8  10 -1.2896 4.48921   2
  -1  -8  10 1.54016 3.12994   3
   0   8 -10 0.08145 3.55115   1
   0   8 -10 -0.4190 4.37914   4
   0  -8  10 -2.0463 3.98349   2
   0  -8  10 -4.3866 2.61387   3
  -1   8 -10 6.59809 4.44190   4
  -1   8 -10 0.33146 3.82868   1
   1  -8  10 -5.6221 3.82778   2
   1  -8  10 4.15628 3.04677   3
  -2   8 -10 -0.9501 4.60820   4
  -2   8 -10 -0.6773 3.22313   1
   2  -8  10 -5.0649 5.02146   2
   2  -8  10 -2.6370 2.88574   3
  -3   8 -10 3.75335 3.69717   1
  -3   8 -10 4.96292 5.06805   4
   3  -8  10 -1.4517 4.44036   2
   3  -8  10 -1.3976 3.00559   3
  -4   8 -10 0.50598 4.59437   4
  -4   8 -10 -2.3253 3.83835   1
   4  -8  10 -1.8912 2.71731   3
  -5   8 -10 5.68150 5.61021   4
  -5   8 -10 2.33365 4.47722   1
   5  -8  10 -2.1629 3.09909   3
  -6   8 -10 -11.613 5.75879   1
  -6   8 -10 -10.595 5.69143   4
   6  -8  10 1.18863 3.40000   3
  -7   8 -10 3.74296 6.46466   1
  -7   8 -10 -6.1406 5.82345   4
   7  -8  10 -0.5625 3.45003   3
  -8   8 -10 -0.8704 8.38987   1
  -8   8 -10 5.65035 6.64001   4
   8  -8  10 0.15702 3.91448   3
   6   7 -10 -3.2459 4.53735   1
  -6  -7  10 -5.7559 5.28020   2
   5   7 -10 -4.8666 4.02707   1
  -5  -7  10 0.93346 4.40566   2
   4   7 -10 1.53184 4.32933   4
   4   7 -10 3.03309 4.02831   1
  -4  -7  10 1.86487 4.32646   2
   3   7 -10 13.6413 4.27905   1
   3   7 -10 2.86767 3.81799   4
  -3  -7  10 9.65288 3.70473   3
  -3  -7  10 1.54318 4.50556   2
   2   7 -10 0.94031 3.54533   4
   2   7 -10 3.25913 3.32830   1
  -2  -7  10 5.79175 5.82830   3
  -2  -7  10 3.92457 4.23252   2
   1   7 -10 7.63698 3.60474   4
   1   7 -10 -1.2117 3.22360   1
  -1  -7  10 6.50993 2.82175   3
  -1  -7  10 8.49606 4.38718   2
   0   7 -10 1.95095 3.46958   4
   0   7 -10 -2.8012 2.93491   1
   0  -7  10 4.24231 4.02879   2
   0  -7  10 0.32833 2.51278   3
  -1   7 -10 1.00105 3.42311   1
  -1   7 -10 -2.5117 3.84601   4
   1  -7  10 2.33121 2.73215   3
   1  -7  10 4.91961 4.11337   2
  -2   7 -10 1.35515 2.92145   1
  -2   7 -10 5.40104 3.94220   4
   2  -7  10 2.08902 3.49393   2
   2  -7  10 5.42835 2.50155   3
  -3   7 -10 1.02513 3.18227   1
  -3   7 -10 4.63039 4.39501   4
   3  -7  10 -1.6874 3.79716   2
   3  -7  10 -0.5406 2.57661   3
  -4   7 -10 2.48042 3.71348   1
  -4   7 -10 7.11668 4.51107   4
   4  -7  10 0.48394 2.60719   3
  -5   7 -10 -0.5182 3.99677   1
  -5   7 -10 0.34508 4.65712   4
   5  -7  10 -0.2121 2.82091   3
  -6   7 -10 -5.2546 5.16263   4
  -6   7 -10 3.21922 5.50154   1
   6  -7  10 -1.4385 3.04003   3
  -7   7 -10 17.2884 6.48346   1
  -7   7 -10 -0.2459 5.47859   4
   7  -7  10 -1.2760 3.64769   3
  -8   7 -10 -1.7407 6.56564   4
  -8   7 -10 2.01242 7.57852   1
   8  -7  10 -0.7300 3.90773   3
   7   6 -10 -0.0738 5.17793   1
  -7  -6  10 5.16855 5.50716   2
   6   6 -10 -1.8880 4.18093   1
  -6  -6  10 3.98407 4.49055   2
   5   6 -10 -0.0140 3.70418   1
  -5  -6  10 -1.1358 4.18324   2
   4   6 -10 0.09875 3.23433   1
   4   6 -10 4.33216 3.16277   4
  -4  -6  10 3.78279 4.05871   2
  -4  -6  10 3.91987 3.92399   3
   3   6 -10 5.63066 2.91968   1
   3   6 -10 5.92114 3.04604   4
  -3  -6  10 12.4712 3.29877   3
  -3  -6  10 -1.5838 3.45137   2
   2   6 -10 12.8651 3.52413   1
   2   6 -10 14.5747 3.19884   4
  -2  -6  10 11.8954 4.79559   3
  -2  -6  10 7.58065 3.79372   2
   1   6 -10 -1.3311 2.74287   1
   1   6 -10 0.13317 2.88958   4
  -1  -6  10 7.72711 3.68453   2
  -1  -6  10 7.91358 2.59915   3
   0   6 -10 1.68128 2.65710   1
   0   6 -10 1.04848 2.89308   4
   0  -6  10 7.82523 3.53980   2
   0  -6  10 1.53055 2.01024   3
  -1   6 -10 -4.4276 3.01294   4
  -1   6 -10 3.34394 2.57835   1
   1  -6  10 -0.7285 2.31878   3
   1  -6  10 -0.5635 3.08138   2
  -2   6 -10 7.61739 3.90168   4
  -2   6 -10 6.15935 3.21149   1
   2  -6  10 6.96846 2.38893   3
   2  -6  10 1.07017 3.12057   2
  -3   6 -10 9.08177 3.26862   1
  -3   6 -10 0.50603 3.97821   4
   3  -6  10 4.54854 3.15467   2
   3  -6  10 1.24639 2.39202   3
  -4   6 -10 -3.1692 4.10207   4
  -4   6 -10 5.64686 3.34044   1
   4  -6  10 0.64453 2.70448   3
  -5   6 -10 5.91125 4.65237   4
  -5   6 -10 0.23601 3.96975   1
   5  -6  10 0.15810 2.84688   3
  -6   6 -10 -11.224 4.69074   1
  -6   6 -10 -3.5805 4.57778   4
   6  -6  10 1.04507 2.60222   3
  -7   6 -10 3.24010 5.94014   4
  -7   6 -10 4.74344 5.99402   1
   7  -6  10 3.12608 3.09991   3
  -8   6 -10 6.15156 6.71721   1
   8  -6  10 5.21679 3.73946   3
   8   5 -10 -5.3054 4.83748   1
  -8  -5  10 -6.9972 5.38440   2
   7   5 -10 -1.0068 4.69360   1
  -7  -5  10 2.86791 5.63020   2
   6   5 -10 -2.5678 3.51451   1
  -6  -5  10 4.59758 4.60810   2
   5   5 -10 -0.0484 3.25009   1
  -5  -5  10 4.30913 3.74276   2
   4   5 -10 3.89833 3.43088   1
   4   5 -10 3.72522 2.66378   4
  -4  -5  10 5.00974 3.89801   2
  -4  -5  10 -0.0494 2.83258   3
   3   5 -10 18.4669 3.52897   1
   3   5 -10 23.8534 3.10343   4
  -3  -5  10 23.7307 4.16173   2
  -3  -5  10 22.9005 3.35899   3
   2   5 -10 12.6527 2.81340   4
   2   5 -10 9.07759 3.17064   1
  -2  -5  10 11.3133 2.74463   3
  -2  -5  10 9.38122 3.46235   2
   1   5 -10 12.2982 3.12696   1
   1   5 -10 14.6927 3.05240   4
  -1  -5  10 11.5081 3.56915   2
  -1  -5  10 9.57739 2.50922   3
   0   5 -10 6.95419 2.93630   4
   0   5 -10 3.30822 2.84698   1
   0  -5  10 5.73520 2.17740   3
   0  -5  10 7.21733 2.98246   2
  -1   5 -10 -1.4906 2.19799   1
  -1   5 -10 9.27569 3.17395   4
   1  -5  10 -1.8375 1.90268   3
   1  -5  10 -0.1929 2.95637   2
  -2   5 -10 6.62417 3.38038   4
  -2   5 -10 7.38908 2.82724   1
   2  -5  10 6.47510 2.37635   3
   2  -5  10 8.34466 2.90130   2
  -3   5 -10 9.85021 4.34847   4
  -3   5 -10 8.63769 3.20301   1
   3  -5  10 11.5354 2.77470   2
   3  -5  10 6.02449 2.33938   3
  -4   5 -10 3.95439 4.11460   4
  -4   5 -10 2.58484 3.25779   1
   4  -5  10 2.78159 2.35871   3
  -5   5 -10 -0.2281 3.85837   1
  -5   5 -10 -1.5694 4.48156   4
   5  -5  10 -0.9477 2.69617   3
  -6   5 -10 3.26108 4.97790   4
  -6   5 -10 -7.1119 4.62890   1
   6  -5  10 -1.7472 2.67162   3
  -7   5 -10 -4.9974 5.12624   4
  -7   5 -10 -1.2400 5.75226   1
   7  -5  10 0.28779 3.13591   3
  -8   5 -10 -2.4361 6.41137   1
   8  -5  10 -1.9402 3.98077   3
  -9  -4  10 2.17673 6.08093   2
   8   4 -10 -0.2841 5.09879   1
  -8  -4  10 4.27647 4.99510   2
   7   4 -10 7.99622 4.49405   1
  -7  -4  10 18.6181 5.44627   2
   6   4 -10 0.40227 3.08121   1
  -6  -4  10 7.12388 4.54899   2
   5   4 -10 -2.8205 3.12463   1
  -5  -4  10 5.92405 3.25233   3
  -5  -4  10 0.82180 3.93206   2
   4   4 -10 -0.3088 2.75295   1
   4   4 -10 -1.0753 2.14497   4
  -4  -4  10 2.55170 3.45322   2
  -4  -4  10 0.90180 2.72382   3
   3   4 -10 60.8852 3.82322   4
   3   4 -10 73.1078 5.18695   1
  -3  -4  10 84.2065 4.96414   3
  -3  -4  10 74.6811 5.43270   2
   2   4 -10 4.41323 2.63291   1
   2   4 -10 6.57202 2.29773   4
  -2  -4  10 5.20799 2.37413   3
  -2  -4  10 11.1254 3.46615   2
   1   4 -10 47.7415 4.10705   1
   1   4 -10 50.3499 3.59954   4
  -1  -4  10 54.5485 7.18964   2
   0   4 -10 11.2829 2.77427   1
   0   4 -10 12.1373 2.67086   4
   0  -4  10 9.74482 2.22134   3
   0  -4  10 12.2271 3.11857   2
  -1   4 -10 0.21316 2.25713   1
  -1   4 -10 -1.5806 2.39675   4
   1  -4  10 0.39883 1.77631   3
   1  -4  10 -2.9698 2.65182   2
  -2   4 -10 -0.9456 2.83794   4
  -2   4 -10 4.71988 2.43820   1
   2  -4  10 2.95513 2.43878   2
   2  -4  10 6.48196 2.40037   3
  -3   4 -10 16.9355 3.98601   4
  -3   4 -10 16.1574 3.10931   1
   3  -4  10 14.2021 2.36933   2
   3  -4  10 15.0794 2.71551   3
  -4   4 -10 5.07795 4.20944   4
  -4   4 -10 4.74579 2.91688   1
   4  -4  10 -1.4669 2.08093   3
  -5   4 -10 9.88153 4.40041   1
  -5   4 -10 -11.081 3.86198   4
   5  -4  10 2.98384 2.51072   3
  -6   4 -10 14.1925 4.48869   1
  -6   4 -10 -0.5894 4.55585   4
   6  -4  10 -0.2432 2.48438   3
  -7   4 -10 3.00431 5.81907   1
  -7   4 -10 -0.1628 5.23326   4
   7  -4  10 -3.4975 3.01380   3
   8  -4  10 -2.6987 7.34212   3
   9   3 -10 -1.5087 4.58074   1
  -9  -3  10 2.65033 5.42437   2
   8   3 -10 1.67030 4.12738   1
  -8  -3  10 8.02580 5.26006   2
   7   3 -10 9.21774 3.47070   1
  -7  -3  10 15.1901 5.05324   2
  -7  -3  10 24.4245 4.76649   3
   6   3 -10 11.6939 3.46703   1
  -6  -3  10 14.0740 4.51080   2
  -6  -3  10 20.0761 4.18519   3
   5   3 -10 3.22662 3.00339   1
  -5  -3  10 4.48485 3.16646   3
  -5  -3  10 2.55886 3.61122   2
   4   3 -10 4.15275 2.83151   1
   4   3 -10 0.33956 1.75080   4
  -4  -3  10 -0.9105 2.34655   3
  -4  -3  10 3.59509 3.56996   2
   3   3 -10 59.9534 3.01431   4
   3   3 -10 59.9874 4.45198   1
  -3  -3  10 59.5265 4.22110   3
  -3  -3  10 67.2778 5.17213   2
   2   3 -10 21.1022 2.47631   4
   2   3 -10 17.2443 3.03735   1
  -2  -3  10 19.5991 3.71409   2
  -2  -3  10 16.1674 2.73239   3
   1   3 -10 65.5497 3.59596   4
   1   3 -10 64.2484 4.50156   1
  -1  -3  10 72.7581 4.59199   2
   0   3 -10 13.1673 2.77546   1
   0   3 -10 18.8324 2.66824   4
   0  -3  10 15.4276 2.51814   3
   0  -3  10 20.9000 3.29725   2
  -1   3 -10 1.12919 2.24387   4
  -1   3 -10 1.34441 2.10556   1
   1  -3  10 -0.2798 1.79902   3
   1  -3  10 0.44938 2.29200   2
  -2   3 -10 8.31311 2.61258   1
  -2   3 -10 8.43863 2.95261   4
   2  -3  10 8.00860 2.33471   2
   2  -3  10 7.94152 2.09366   3
  -3   3 -10 5.51916 3.76223   4
  -3   3 -10 11.3633 3.34463   1
   3  -3  10 10.0067 2.37851   3
  -4   3 -10 3.48589 3.60818   4
  -4   3 -10 2.49166 3.22770   1
   4  -3  10 3.93935 2.35921   3
  -5   3 -10 -3.4305 3.92168   1
  -5   3 -10 -0.4386 4.50487   4
   5  -3  10 1.17668 2.53471   3
  -6   3 -10 0.19033 4.21205   4
  -6   3 -10 2.16714 4.94051   1
   6  -3  10 -0.9485 2.82850   3
  -7   3 -10 -0.6742 5.05547   1
  -7   3 -10 -1.8267 4.91164   4
   7  -3  10 -3.2427 4.60563   4
   7  -3  10 -0.8897 3.25574   3
  -8   3 -10 -15.396 5.92037   1
   8  -3  10 2.37556 3.95923   3
   8  -3  10 -5.4851 5.20282   4
  10   2 -10 -1.4276 5.10887   1
 -10  -2  10 -7.5237 5.91192   2
   9   2 -10 -5.5153 4.41628   1
  -9  -2  10 -5.1120 5.79729   2
   8   2 -10 8.45702 4.10707   1
  -8  -2  10 9.53429 4.85465   2
   7   2 -10 16.1944 3.95847   1
  -7  -2  10 25.8477 4.77847   3
  -7  -2  10 20.1575 4.71715   2
   6   2 -10 18.5574 3.97397   1
  -6  -2  10 27.6285 4.12305   3
  -6  -2  10 28.9140 4.59942   2
   5   2 -10 11.3477 3.25002   1
  -5  -2  10 13.6789 4.09351   2
  -5  -2  10 17.5168 3.36115   3
   4   2 -10 5.03783 2.82159   1
  -4  -2  10 -1.0937 2.22681   3
  -4  -2  10 5.51136 3.30168   2
   3   2 -10 22.3616 3.32698   1
  -3  -2  10 20.3093 3.00057   3
  -3  -2  10 25.2047 3.78800   2
   2   2 -10 48.0295 3.82230   1
   2   2 -10 54.1178 2.51061   4
  -2  -2  10 47.2584 2.04100   4
  -2  -2  10 57.1124 3.61582   3
   1   2 -10 58.4746 3.14605   4
   1   2 -10 54.3262 3.87427   1
  -1  -2  10 66.5160 4.40681   3
  -1  -2  10 61.8501 4.19050   2
   0   2 -10 26.4139 2.76210   4
   0   2 -10 16.4790 2.66405   1
   0  -2  10 19.5202 2.65445   3
   0  -2  10 24.2348 3.25068   2
  -1   2 -10 -0.5707 2.49367   4
  -1   2 -10 -0.5005 2.14163   1
   1  -2  10 0.42094 1.65124   3
   1  -2  10 0.50356 2.15384   2
  -2   2 -10 8.97852 2.08726   2
  -2   2 -10 9.52822 2.75368   1
  -2   2 -10 11.5612 2.81827   4
   2  -2  10 5.98515 1.91290   3
  -3   2 -10 6.11973 2.64389   1
  -3   2 -10 8.08303 3.82509   4
   3  -2  10 7.09675 2.02484   3
  -4   2 -10 7.17431 3.98734   4
  -4   2 -10 10.8906 3.93308   1
   4  -2  10 2.23048 2.13940   3
  -5   2 -10 2.82328 4.08652   1
  -5   2 -10 -3.0662 3.99319   4
   5  -2  10 1.83407 2.72675   3
   5  -2  10 2.43120 4.09965   4
  -6   2 -10 3.33928 4.72841   1
   6  -2  10 -0.4025 3.08243   3
   6  -2  10 0.27488 4.25795   4
  -7   2 -10 2.87497 5.09267   1
   7  -2  10 -0.9958 3.70609   3
   7  -2  10 -0.1171 5.25962   4
  -8   2 -10 -2.9320 6.20173   1
   8  -2  10 -7.9824 4.17306   3
   8  -2  10 8.75730 5.75749   4
  10   1 -10 -6.2684 4.97219   1
 -10  -1  10 8.43508 5.72513   2
   9   1 -10 -3.3637 4.32811   1
  -9  -1  10 3.42305 4.75315   2
  -9  -1  10 -13.203 5.31221   3
   8   1 -10 11.3055 3.80776   1
  -8  -1  10 8.97789 4.28289   2
  -8  -1  10 14.1101 4.97075   3
   7   1 -10 34.7154 4.90853   1
  -7  -1  10 34.7962 5.35062   3
  -7  -1  10 25.8245 4.86162   2
   6   1 -10 34.3364 4.34795   1
  -6  -1  10 39.1845 4.95363   2
  -6  -1  10 52.9881 9.00032   3
   5   1 -10 19.1518 3.55422   1
  -5  -1  10 16.8663 3.30680   3
  -5  -1  10 6.92708 3.71297   2
   4   1 -10 -0.2927 2.19133   1
  -4  -1  10 -3.1791 2.12391   3
  -4  -1  10 -4.2714 3.00364   2
   3   1 -10 29.1592 3.38173   1
  -3  -1  10 33.3559 3.25151   3
  -3  -1  10 40.1090 4.45574   2
  -2  -1  10 81.0029 4.26388   3
  -2  -1  10 84.8691 4.86237   2
  -1  -1  10 58.1684 3.87262   2
  -1  -1  10 54.9282 2.86011   4
  -1  -1  10 67.8854 5.47278   3
   0   1 -10 22.1852 3.37187   1
   0  -1  10 21.9106 2.97427   2
   0  -1  10 16.7112 2.53080   3
   0  -1  10 22.5097 2.65863   4
  -1   1 -10 -1.2820 1.87871   2
  -1   1 -10 1.61750 2.37247   1
   1  -1  10 -0.4031 2.31370   4
   1  -1  10 1.96671 1.70938   3
  -2   1 -10 0.45126 1.74053   2
  -2   1 -10 0.14746 2.52024   1
   2  -1  10 5.11743 2.03007   3
   2  -1  10 0.24008 2.71560   4
  -3   1 -10 2.63320 2.87219   1
   3  -1  10 3.44169 2.20585   3
   3  -1  10 5.53350 3.45504   4
  -4   1 -10 1.66552 3.70108   1
   4  -1  10 8.07884 2.26348   3
   4  -1  10 6.80734 3.94065   4
  -5   1 -10 1.35252 4.34209   1
   5  -1  10 -0.3464 2.34993   3
   5  -1  10 3.49866 3.88124   4
  -6   1 -10 7.03865 4.72727   1
   6  -1  10 9.31936 4.68181   4
   7  -1  10 0.55448 3.24208   3
   7  -1  10 -3.7064 5.18606   4
   8  -1  10 -9.0911 5.51642   4
 -11   0  10 2.99492 5.72434   2
  10   0 -10 -4.6532 4.74845   1
 -10   0  10 -12.480 6.35988   3
   9   0 -10 0.58044 4.09841   1
  -9   0  10 -2.0682 5.64809   3
  -9   0  10 -6.6181 4.08247   2
   8   0 -10 7.19593 3.51902   1
  -8   0  10 12.7108 4.67219   3
  -8   0  10 11.0981 4.35451   2
   7   0 -10 62.2714 5.43066   1
  -7   0  10 72.8993 6.02258   2
  -7   0  10 84.5133 6.81668   3
   6   0 -10 41.0383 4.37409   1
  -6   0  10 49.7261 4.86269   3
  -6   0  10 47.9294 4.84060   2
   5   0 -10 37.3242 3.81889   1
  -5   0  10 30.3374 4.75621   2
   4   0 -10 0.58177 2.32259   1
  -4   0  10 -3.5482 2.19895   3
  -4   0  10 3.02532 2.97994   2
   3   0 -10 71.0154 6.18339   1
  -3   0  10 51.5784 5.27386   2
  -3   0  10 58.4097 3.88529   3
   2   0 -10 80.8486 4.52599   1
  -2   0  10 78.2846 4.54778   2
  -2   0  10 86.5873 5.19362   3
   1   0 -10 40.0664 3.92860   1
  -1   0  10 37.8231 3.44829   2
  -1   0  10 32.0626 2.18479   4
   0   0 -10 47.1362 3.40666   2
   0   0 -10 41.8581 3.54509   1
   0   0  10 45.9278 3.07840   4
   0   0  10 37.4730 2.89474   3
  -1   0 -10 5.48498 2.16536   2
  -1   0 -10 6.67239 2.38991   1
   1   0  10 4.33181 2.20656   4
   1   0  10 2.96488 1.92343   3
  -2   0 -10 -1.6265 2.16094   1
  -2   0 -10 1.60722 1.68042   2
   2   0  10 6.43591 2.73892   4
   2   0  10 -1.3275 1.84016   3
  -3   0 -10 8.13337 3.68001   1
   3   0  10 4.96680 2.16921   3
  -4   0 -10 14.1266 4.07920   1
   4   0  10 0.24439 3.48946   4
   4   0  10 5.24070 2.61121   3
  -5   0 -10 -0.8557 4.44453   1
   5   0  10 -0.5170 2.77021   3
   5   0  10 5.76242 4.27550   4
  -6   0 -10 4.94867 5.26465   1
   6   0  10 3.25886 4.91908   4
   6   0  10 -0.4957 3.37336   3
  -7   0 -10 -7.9460 5.63036   1
   7   0  10 -3.3856 4.08335   3
   7   0  10 12.5503 5.45969   4
 -11   1  10 12.9789 7.76518   3
 -11   1  10 5.76114 6.02528   2
  10  -1 -10 0.49342 4.54242   1
 -10   1  10 -8.4009 4.35102   2
 -10   1  10 16.4666 6.10843   3
   9  -1 -10 -3.8340 3.57015   1
  -9   1  10 1.89173 5.38618   3
  -9   1  10 -0.3631 4.25535   2
   8  -1 -10 10.8243 3.64123   1
  -8   1  10 18.7184 5.09666   3
  -8   1  10 11.7821 4.69937   2
   7  -1 -10 78.7202 5.72978   1
  -7   1  10 95.9400 7.05961   3
  -7   1  10 71.0073 5.68485   2
   6  -1 -10 41.7421 4.15726   1
  -6   1  10 40.5584 5.15881   3
  -6   1  10 32.6362 4.19442   2
   5  -1 -10 36.9930 3.73819   1
  -5   1  10 38.9310 3.88666   3
  -5   1  10 41.0612 4.64431   2
   4  -1 -10 1.63254 2.37584   1
  -4   1  10 -0.4315 2.34322   3
  -4   1  10 2.46239 2.73743   2
   3  -1 -10 34.2949 3.49081   1
   2  -1 -10 64.7546 4.38562   2
   2  -1 -10 59.3428 3.96781   1
  -2   1  10 58.6905 2.64279   4
  -2   1  10 62.5522 2.17258   4
   1  -1 -10 33.5309 3.19871   2
   1  -1 -10 31.3726 3.63242   1
  -1   1  10 35.1981 2.15497   4
  -1   1  10 29.1881 2.89794   3
   0  -1 -10 51.3538 3.99765   1
   0  -1 -10 60.7002 3.85978   2
   0   1  10 62.2222 3.25176   4
   0   1  10 57.4106 3.56475   3
  -1  -1 -10 2.97338 2.42583   1
  -1  -1 -10 0.73464 1.96257   2
   1   1  10 -2.3100 2.13994   4
   1   1  10 -0.8838 1.77413   3
  -2  -1 -10 2.12519 1.74841   2
  -2  -1 -10 0.86930 3.02209   1
   2   1  10 4.93570 2.19862   3
   2   1  10 -0.2011 2.90071   4
  -3  -1 -10 6.46505 3.62014   1
   3   1  10 2.40307 3.20693   4
   3   1  10 4.89779 2.34636   3
  -4  -1 -10 2.92369 3.71263   1
   4   1  10 -1.2703 2.58215   3
   4   1  10 -3.7184 3.39072   4
  -5  -1 -10 0.24897 4.55907   1
   5   1  10 -0.3125 4.38309   4
   5   1  10 -4.9048 3.15396   3
  -6  -1 -10 0.52579 5.41811   1
   6   1  10 2.72272 4.55249   4
   6   1  10 -8.1204 3.75230   3
  -7  -1 -10 7.04892 7.47070   1
   7   1  10 3.37737 5.17847   4
   7   1  10 -8.9938 4.60990   3
  11  -2 -10 1.68919 5.25275   1
 -11   2  10 14.6530 7.89228   3
 -11   2  10 1.46554 5.26662   2
  10  -2 -10 -0.0571 3.93984   1
 -10   2  10 1.79797 5.34342   2
 -10   2  10 11.7773 6.19163   3
   9  -2 -10 0.19919 3.55335   1
  -9   2  10 4.08197 5.29547   3
  -9   2  10 5.37618 4.33614   2
   8  -2 -10 24.2073 4.18300   1
  -8   2  10 32.5638 5.58442   3
  -8   2  10 14.5920 4.58211   2
   7  -2 -10 68.2635 4.88186   1
  -7   2  10 80.8435 6.30015   3
  -7   2  10 68.9375 5.94758   2
   6  -2 -10 76.2284 4.86893   1
  -6   2  10 72.8046 5.79282   3
  -6   2  10 75.2776 5.87599   2
   5  -2 -10 36.4662 3.83160   1
  -5   2  10 42.4171 4.57364   2
  -5   2  10 39.4598 4.15488   3
   4  -2 -10 5.32267 2.51192   1
  -4   2  10 0.61479 2.19724   3
  -4   2  10 3.17700 2.70653   2
   3  -2 -10 22.1423 3.09571   1
   3  -2 -10 37.4827 4.44372   2
  -3   2  10 20.7137 3.36756   3
   2  -2 -10 42.2489 3.53146   1
   2  -2 -10 44.8854 3.90424   2
  -2   2  10 37.1630 3.37064   3
  -2   2  10 35.7963 2.02606   4
   1  -2 -10 37.1448 3.47806   2
  -1   2  10 38.9500 3.43570   3
  -1   2  10 37.3711 2.31436   4
   0  -2 -10 41.5054 3.36294   2
   0  -2 -10 34.2401 3.96175   1
   0   2  10 34.4176 2.71253   4
   0   2  10 32.8462 3.42268   3
  -1  -2 -10 2.97857 2.02164   2
  -1  -2 -10 0.52126 2.75847   1
   1   2  10 3.91869 2.10707   3
   1   2  10 -1.5178 1.97829   4
  -2  -2 -10 6.11096 2.02909   2
  -2  -2 -10 -2.1018 3.31993   1
   2   2  10 2.07818 2.82950   4
   2   2  10 1.41771 2.26909   3
  -3  -2 -10 2.37359 3.79706   1
   3   2  10 -2.5837 2.47653   3
   3   2  10 1.68265 3.05879   4
  -4  -2 -10 0.43540 4.51734   1
   4   2  10 6.80561 3.88116   4
   4   2  10 2.48675 3.03621   3
  -5  -2 -10 0.99775 5.58678   1
   5   2  10 -1.4657 4.17569   4
   5   2  10 3.04444 3.44603   3
  -6  -2 -10 -2.2137 6.35895   1
   6   2  10 1.40065 4.02528   3
   6   2  10 -4.9419 4.53575   4
  11  -3 -10 9.02729 5.08015   1
 -11   3  10 25.0848 8.26912   3
 -11   3  10 4.56859 6.26082   2
  10  -3 -10 3.14943 4.24128   1
 -10   3  10 10.3668 5.14788   2
 -10   3  10 3.66658 6.66509   3
   9  -3 -10 3.35588 3.45401   1
  -9   3  10 -0.8767 4.30758   2
  -9   3  10 5.74780 5.26240   3
   8  -3 -10 27.0849 4.06789   1
  -8   3  10 21.6613 5.13647   3
  -8   3  10 19.0402 4.91643   2
   7  -3 -10 63.6589 5.01269   1
  -7   3  10 71.8656 5.99407   3
  -7   3  10 59.9157 5.88869   2
   6  -3 -10 72.2762 5.90222   2
  -6   3  10 68.5795 5.60356   3
  -6   3  10 66.6867 5.48320   2
   5  -3 -10 56.4741 4.20242   1
   5  -3 -10 50.2168 5.09956   2
  -5   3  10 60.9688 4.76854   3
   4  -3 -10 4.48051 2.54207   1
   4  -3 -10 1.07563 4.48138   2
  -4   3  10 5.33867 2.54741   3
   3  -3 -10 8.95971 3.11464   2
   3  -3 -10 6.54768 2.53334   1
  -3   3  10 4.96815 1.34174   4
  -3   3  10 8.54681 2.64822   3
   2  -3 -10 33.9507 3.38460   1
  -2   3  10 24.6673 3.42696   3
  -2   3  10 26.3255 2.13186   4
   1  -3 -10 35.7952 5.51462   1
   1  -3 -10 38.4272 3.62495   2
  -1   3  10 34.0746 3.48153   3
  -1   3  10 40.5551 2.45744   4
   0  -3 -10 24.9598 3.98128   1
   0  -3 -10 21.3328 2.80042   2
   0   3  10 22.6377 2.64901   4
   0   3  10 17.5008 2.70778   3
  -1  -3 -10 2.58044 3.22954   1
  -1  -3 -10 4.73508 2.23186   2
   1   3  10 2.31918 2.35317   3
   1   3  10 -0.6000 2.56411   4
  -2  -3 -10 0.90846 3.50526   1
  -2  -3 -10 0.69578 2.08363   2
   2   3  10 2.14105 2.99710   4
   2   3  10 -2.1146 2.62614   3
  -3  -3 -10 6.30912 4.85945   1
   3   3  10 8.19793 2.92073   3
   3   3  10 4.10306 3.51373   4
  -4  -3 -10 6.04361 5.27321   1
   4   3  10 1.99458 3.74344   4
   4   3  10 2.83114 3.13877   3
  -5  -3 -10 0.91285 5.88295   1
   5   3  10 6.81784 3.85583   3
   5   3  10 -3.8404 4.28884   4
  -6  -3 -10 21.1418 7.57578   1
   6   3  10 5.88789 4.72717   3
   6   3  10 1.24937 4.47848   4
  11  -4 -10 4.09646 10.7237   2
  11  -4 -10 2.22496 4.74027   1
 -11   4  10 10.5770 9.32027   2
 -11   4  10 9.07249 8.41376   3
  10  -4 -10 8.75694 5.40139   2
  10  -4 -10 0.36758 3.91252   1
 -10   4  10 12.1043 4.98443   2
 -10   4  10 10.0466 6.72870   3
   9  -4 -10 -1.3004 3.19796   1
   9  -4 -10 4.83338 4.78928   2
  -9   4  10 5.41403 5.36418   3
   8  -4 -10 5.36823 3.06409   1
   8  -4 -10 13.7940 3.91768   2
  -8   4  10 5.11616 4.43586   3
   7  -4 -10 60.0680 6.17423   2
  -7   4  10 71.0812 5.89485   3
   6  -4 -10 87.7842 5.11154   1
   6  -4 -10 95.2208 6.23122   2
  -6   4  10 81.5589 5.87680   3
   5  -4 -10 38.2553 4.03990   1
   5  -4 -10 38.8146 4.26225   2
  -5   4  10 33.9854 4.22690   3
   4  -4 -10 7.95883 2.37187   1
   4  -4 -10 1.59332 3.01900   2
  -4   4  10 2.73775 1.72736   4
  -4   4  10 2.95838 2.38520   3
   3  -4 -10 -0.4812 2.34502   1
   3  -4 -10 -4.6800 3.00485   2
  -3   4  10 -1.4005 2.36463   3
  -3   4  10 4.22796 1.65077   4
   2  -4 -10 25.9799 3.88033   2
   2  -4 -10 28.9680 3.44582   1
  -2   4  10 22.6752 2.46734   4
  -2   4  10 20.4918 3.22065   3
   1  -4 -10 31.5534 3.67873   2
   1  -4 -10 31.3620 4.30809   1
  -1   4  10 36.2754 2.79304   4
  -1   4  10 27.1483 3.49271   3
   0  -4 -10 19.4238 4.04460   1
   0  -4 -10 16.6842 3.23337   2
   0   4  10 9.76765 2.85055   3
   0   4  10 11.9209 2.75982   4
  -1  -4 -10 11.7070 3.91366   1
  -1  -4 -10 4.58518 2.49478   2
   1   4  10 6.28461 2.87494   4
   1   4  10 3.46608 2.84711   3
  -2  -4 -10 -4.8563 2.44425   2
  -2  -4 -10 0.24130 4.48530   1
   2   4  10 0.25138 2.97575   3
   2   4  10 1.87707 2.77741   4
  -3  -4 -10 -0.1141 5.09486   1
   3   4  10 5.05056 3.55287   4
   3   4  10 4.56053 3.40563   3
  -4  -4 -10 4.95700 6.31466   1
   4   4  10 -3.1551 3.68437   4
   4   4  10 5.88327 4.09348   3
  -5  -4 -10 2.20706 7.05767   1
   5   4  10 17.5551 4.88857   3
   5   4  10 -3.9705 4.85559   4
  11  -5 -10 4.08248 4.72299   1
  11  -5 -10 17.0319 9.42225   2
 -11   5  10 10.4642 8.04391   3
  10  -5 -10 15.9467 5.05221   2
  10  -5 -10 10.1125 3.84704   1
 -10   5  10 26.8582 6.79220   3
   9  -5 -10 1.83534 3.96468   2
   9  -5 -10 3.90457 3.35266   1
  -9   5  10 5.44824 5.53654   3
   8  -5 -10 0.47484 3.00646   1
   8  -5 -10 5.19756 4.35471   2
  -8   5  10 8.45421 4.44085   3
   7  -5 -10 37.6439 4.48300   1
   7  -5 -10 44.0217 4.62920   2
  -7   5  10 55.4276 6.01613   3
   6  -5 -10 95.1739 5.17928   1
   6  -5 -10 84.8521 5.83336   2
  -6   5  10 85.0798 6.16490   3
   5  -5 -10 0.31738 2.95888   1
   5  -5 -10 0.21047 3.46791   2
  -5   5  10 -0.0894 2.05921   4
  -5   5  10 -1.3003 2.90484   3
   4  -5 -10 18.3959 3.62521   2
   4  -5 -10 19.6256 3.22956   1
  -4   5  10 16.9735 3.71253   3
  -4   5  10 23.7432 2.75465   4
   3  -5 -10 0.43141 2.94823   2
   3  -5 -10 5.00661 2.63359   1
  -3   5  10 0.64239 1.88725   4
  -3   5  10 -2.1227 2.77406   3
   2  -5 -10 25.7783 3.59108   2
   2  -5 -10 16.1439 4.10219   1
  -2   5  10 16.2060 3.52509   3
  -2   5  10 19.8215 2.39956   4
   1  -5 -10 20.4411 6.29094   2
   1  -5 -10 26.9414 4.45949   1
  -1   5  10 19.7341 3.65284   3
  -1   5  10 25.2595 3.01754   4
   0  -5 -10 21.1836 4.21729   1
   0  -5 -10 6.63692 2.93011   2
   0   5  10 5.33863 3.61291   4
   0   5  10 11.7071 3.25964   3
  -1  -5 -10 -0.5306 2.79129   2
  -1  -5 -10 -0.5600 4.59895   1
   1   5  10 -4.5024 3.11805   3
   1   5  10 -0.2446 2.47532   4
  -2  -5 -10 1.10244 2.99260   2
  -2  -5 -10 0.98484 5.60631   1
   2   5  10 -2.2160 2.96558   4
   2   5  10 -2.5086 3.53661   3
  -3  -5 -10 2.75314 6.18362   1
   3   5  10 -3.4439 3.87878   3
   3   5  10 5.84393 3.74139   4
  -4  -5 -10 2.11818 7.34574   1
   4   5  10 4.59600 4.43027   4
   4   5  10 0.94031 4.51122   3
  11  -6 -10 11.6478 4.82504   1
  11  -6 -10 2.21663 5.03928   2
 -11   6  10 17.4172 7.88734   3
  10  -6 -10 5.92382 5.06969   2
  10  -6 -10 5.78760 3.89681   1
 -10   6  10 29.1237 7.60253   3
   9  -6 -10 -5.6537 3.93319   2
   9  -6 -10 -3.2089 3.33964   1
  -9   6  10 0.30770 5.38889   3
   8  -6 -10 1.89367 4.12720   2
   8  -6 -10 3.36228 3.14266   1
  -8   6  10 2.42345 4.41514   3
   7  -6 -10 14.4205 3.45960   1
   7  -6 -10 14.8001 3.79983   2
  -7   6  10 22.2889 4.51867   3
   6  -6 -10 39.5311 4.99332   2
  -6   6  10 33.4064 3.39981   4
  -6   6  10 31.0171 4.26088   3
   5  -6 -10 4.18802 3.30586   2
  -5   6  10 3.10166 3.25704   3
  -5   6  10 1.74700 2.59528   4
   4  -6 -10 43.4978 5.20362   2
   4  -6 -10 38.7430 4.98118   1
  -4   6  10 43.5373 3.40390   4
  -4   6  10 37.9966 4.89491   3
   3  -6 -10 4.83356 2.93444   2
   3  -6 -10 3.33158 3.10565   1
  -3   6  10 0.13811 2.40538   4
  -3   6  10 -5.3174 2.57425   3
   2  -6 -10 8.17801 3.00043   2
   2  -6 -10 12.8833 4.60385   1
  -2   6  10 6.97881 3.28569   3
  -2   6  10 15.2994 3.17860   4
   1  -6 -10 8.55882 3.05533   2
   1  -6 -10 22.9110 4.47341   1
  -1   6  10 9.49902 3.36576   4
  -1   6  10 7.76738 3.63247   3
   0  -6 -10 2.25227 2.93458   2
   0  -6 -10 4.11482 4.38868   1
   0   6  10 2.61287 3.19045   4
   0   6  10 8.08999 3.79743   3
  -1  -6 -10 -4.5174 2.95033   2
  -1  -6 -10 4.13720 5.13337   1
   1   6  10 -0.6542 3.77033   3
   1   6  10 0.40398 3.06385   4
  -2  -6 -10 -0.8218 3.39035   2
  -2  -6 -10 4.75664 6.09051   1
   2   6  10 0.81272 4.50505   3
   2   6  10 -4.8218 3.40278   4
  -3  -6 -10 -2.2483 7.52552   1
   3   6  10 -2.6664 5.00578   3
   3   6  10 -3.6980 3.72273   4
  -4  -6 -10 14.4013 8.68001   1
   4   6  10 8.92569 5.12189   4
  11  -7 -10 1.35391 5.21341   2
 -11   7  10 26.2133 9.05559   3
  10  -7 -10 6.39149 4.64461   2
 -10   7  10 16.7347 7.30694   3
   9  -7 -10 2.34024 4.39529   2
   9  -7 -10 -4.9927 4.20122   1
  -9   7  10 0.98880 5.44810   3
   8  -7 -10 3.96609 4.09736   2
  -8   7  10 5.50999 4.24155   3
   7  -7 -10 19.9278 3.40066   1
   7  -7 -10 15.2694 4.08853   2
  -7   7  10 11.3203 4.09814   3
   6  -7 -10 15.1791 3.15209   1
   6  -7 -10 14.9881 4.23945   2
  -6   7  10 19.5801 4.57457   3
  -6   7  10 19.3951 3.51420   4
   5  -7 -10 17.7313 3.34489   1
   5  -7 -10 7.04488 3.47968   2
  -5   7  10 10.3055 3.93938   3
  -5   7  10 17.4337 3.43383   4
   4  -7 -10 15.9112 3.44294   2
   4  -7 -10 14.2377 3.54392   1
  -4   7  10 11.7487 3.20607   4
  -4   7  10 9.39617 4.17104   3
   3  -7 -10 -9.0141 3.37710   1
   3  -7 -10 -3.5414 2.85306   2
  -3   7  10 -2.1788 3.46612   3
  -3   7  10 0.23171 2.97438   4
   2  -7 -10 4.72167 4.19019   1
   2  -7 -10 -0.2194 3.26831   2
  -2   7  10 1.80623 2.89506   4
  -2   7  10 1.84783 3.80916   3
   1  -7 -10 13.5651 5.11388   1
   1  -7 -10 1.43546 3.22407   2
  -1   7  10 4.90392 3.01506   4
  -1   7  10 1.51243 3.83183   3
   0  -7 -10 0.02974 5.36510   1
   0  -7 -10 1.08749 3.09175   2
   0   7  10 4.59181 3.30586   4
   0   7  10 13.0854 4.50905   3
  -1  -7 -10 0.32119 6.07106   1
  -1  -7 -10 4.82383 3.62942   2
   1   7  10 8.40422 4.73952   3
   1   7  10 0.54628 3.86891   4
  -2  -7 -10 2.67944 7.17073   1
  -2  -7 -10 -7.8800 3.60925   2
   2   7  10 -7.6161 3.75489   4
   2   7  10 -2.6434 4.99449   3
  -3  -7 -10 3.13623 13.3127   1
   3   7  10 -3.2147 4.80768   4
  11  -8 -10 9.73339 5.66862   2
 -11   8  10 10.0951 8.23188   3
  10  -8 -10 -0.9741 8.03463   2
 -10   8  10 -12.133 11.9671   3
   9  -8 -10 4.90843 4.37786   2
  -9   8  10 2.28851 5.83265   3
   8  -8 -10 -3.7950 4.11219   2
  -8   8  10 0.48781 4.72838   3
   7  -8 -10 5.00111 4.06757   2
  -7   8  10 0.23502 4.49049   4
  -7   8  10 8.76616 5.03787   3
   6  -8 -10 16.2986 3.98325   2
   6  -8 -10 10.0569 3.28633   1
  -6   8  10 4.23348 3.56835   4
  -6   8  10 11.5062 4.41282   3
   5  -8 -10 15.2391 3.90923   1
   5  -8 -10 5.86971 3.70679   2
  -5   8  10 2.25266 4.20341   4
  -5   8  10 11.2317 4.64064   3
   4  -8 -10 1.53147 4.01619   1
   4  -8 -10 9.87822 3.77846   2
  -4   8  10 1.35017 3.52297   4
  -4   8  10 4.39876 3.88267   3
   3  -8 -10 9.80712 7.99955   1
   3  -8 -10 -2.0612 3.15585   2
  -3   8  10 2.30051 4.25332   3
  -3   8  10 1.73142 3.17831   4
   2  -8 -10 3.99567 4.98331   1
   2  -8 -10 4.61740 3.41435   2
  -2   8  10 -0.2454 4.27805   3
  -2   8  10 -0.1689 3.29540   4
   1  -8 -10 -3.2336 5.46483   1
   1  -8 -10 6.03254 3.11521   2
  -1   8  10 8.27983 5.29443   3
  -1   8  10 0.57045 3.37541   4
   0  -8 -10 -0.1218 6.28900   1
   0  -8 -10 -0.0379 3.30709   2
   0   8  10 -0.5104 3.74853   4
   0   8  10 -1.4786 5.22908   3
  -1  -8 -10 5.60811 4.35496   2
  -1  -8 -10 6.18648 7.12489   1
   1   8  10 -0.0336 3.87350   4
   1   8  10 2.82597 5.95904   3
  -2  -8 -10 11.5820 8.28158   1
  -2  -8 -10 1.19759 4.71306   2
   2   8  10 -1.5075 5.10285   4
  10  -9 -10 5.08122 5.48029   2
 -10   9  10 3.99637 7.50656   3
   8  -9 -10 -2.5718 3.79634   2
  -8   9  10 -3.6470 4.83524   3
   7  -9 -10 5.10825 3.36797   2
  -7   9  10 -0.3023 5.13201   3
  -7   9  10 7.61346 4.82058   4
   6  -9 -10 3.37336 3.66294   2
  -6   9  10 13.8426 6.94770   4
  -6   9  10 7.03863 4.83665   3
   5  -9 -10 3.36151 3.45227   2
  -5   9  10 3.78110 4.60229   4
  -5   9  10 -1.0638 4.71124   3
   4  -9 -10 -4.1359 3.36386   2
  -4   9  10 5.36921 4.91462   3
  -4   9  10 -6.3605 3.86670   4
   3  -9 -10 2.20055 5.09038   1
   3  -9 -10 4.26483 3.78303   2
  -3   9  10 1.54557 3.96962   4
  -3   9  10 3.64952 4.61373   3
   2  -9 -10 -2.0899 3.59329   2
   2  -9 -10 4.59011 5.72471   1
  -2   9  10 -1.0715 3.87747   4
  -2   9  10 6.89931 5.09925   3
   1  -9 -10 2.34354 6.15111   1
   1  -9 -10 1.43713 3.47995   2
  -1   9  10 -4.6467 3.73504   4
  -1   9  10 10.3576 5.32338   3
   0  -9 -10 3.03199 7.16115   1
   0  -9 -10 -0.9637 3.88176   2
   0   9  10 -4.3780 4.23773   4
   0   9  10 -7.8545 5.93272   3
  10 -10 -10 20.7996 5.55825   2
 -10  10  10 10.3823 7.54920   3
   9 -10 -10 1.88722 4.00376   2
  -9  10  10 -9.4929 6.93045   3
   8 -10 -10 -0.8797 4.39745   2
  -8  10  10 4.97181 6.17014   3
   7 -10 -10 7.73222 7.15634   2
  -7  10  10 -1.2216 5.46435   4
  -7  10  10 -9.2717 5.56663   3
   6 -10 -10 -3.8660 3.59422   2
  -6  10  10 7.56640 5.89843   3
  -6  10  10 20.3428 5.91126   4
   5 -10 -10 -6.2924 3.66123   2
  -5  10  10 1.43464 4.86438   4
  -5  10  10 19.6950 5.43531   3
   4 -10 -10 -1.2611 3.61775   2
  -4  10  10 -2.0106 4.44091   4
  -4  10  10 3.35346 5.60188   3
   3 -10 -10 -3.9386 4.02323   2
  -3  10  10 14.1201 4.68173   4
  -3  10  10 8.09112 6.05500   3
   2 -10 -10 -1.8169 4.01296   2
  -2  10  10 -0.8474 4.30600   4
  -2  10  10 -6.2238 6.73693   3
   1 -10 -10 12.0156 4.85457   2
  -1  10  10 -3.1589 4.16753   4
  -1  10  10 -12.972 6.65533   3
   8 -11 -10 -1.2382 4.35906   2
  -8  11  10 -7.0179 6.17016   3
   7 -11 -10 3.81090 4.95502   2
  -7  11  10 2.83079 6.90700   4
  -7  11  10 5.92448 6.44743   3
   6 -11 -10 3.51161 4.66048   2
  -6  11  10 7.99496 6.86370   4
   5 -11 -10 -1.0548 4.24522   2
  -5  11  10 -11.736 6.29644   3
  -5  11  10 -9.4016 5.77990   4
   4 -11 -10 -6.6114 4.24999   2
  -4  11  10 -7.8475 6.95784   3
  -4  11  10 4.02516 5.32427   4
   3 -11 -10 5.13580 4.84284   2
  -3  11  10 10.4150 5.72019   4
  -3  11  10 -4.8392 7.59707   3
  -1  11 -11 17.0301 7.08680   4
   1 -11  11 7.81103 7.46291   2
  -2  11 -11 -0.2643 7.76794   4
  -2  11 -11 -7.5901 5.62400   1
   2 -11  11 14.2194 7.07688   2
   2 -11  11 2.77506 4.79785   3
  -3  11 -11 4.04247 6.16796   1
  -3  11 -11 -0.1236 6.77412   4
   3 -11  11 -2.8603 5.63871   3
  -2 -10  11 13.3500 6.25343   2
   1  10 -11 2.76467 6.34150   4
   1  10 -11 -6.9365 5.74973   1
  -1 -10  11 -4.0132 6.12373   2
   0  10 -11 2.37986 6.30837   4
   0  10 -11 -7.6308 5.11876   1
   0 -10  11 -7.6612 4.24834   3
   0 -10  11 -7.2479 6.34466   2
  -1  10 -11 -4.8616 4.70218   1
  -1  10 -11 0.14789 6.20013   4
   1 -10  11 -2.7922 6.22540   2
   1 -10  11 5.58505 3.99990   3
  -2  10 -11 -3.5791 4.95421   1
  -2  10 -11 -3.2899 6.05603   4
   2 -10  11 3.81810 4.42599   3
   2 -10  11 -5.7524 6.01683   2
  -3  10 -11 5.70319 6.54230   4
  -3  10 -11 -1.1658 5.19878   1
   3 -10  11 -7.8373 4.19421   3
  -4  10 -11 -5.4781 7.19233   4
  -4  10 -11 6.52367 5.63484   1
   4 -10  11 -11.020 6.11335   3
  -5  10 -11 -4.3391 6.47525   4
  -5  10 -11 0.93421 6.18985   1
   5 -10  11 -2.4856 3.78107   3
  -3  -9  11 3.41819 6.52058   2
   2   9 -11 3.13953 5.06819   1
   2   9 -11 2.02120 5.23136   4
  -2  -9  11 -3.7170 5.45749   2
   1   9 -11 -0.3112 5.26361   4
   1   9 -11 -3.7944 4.59504   1
  -1  -9  11 10.2161 5.32675   2
  -1  -9  11 3.36560 4.59348   3
   0   9 -11 -5.0397 4.31613   1
   0   9 -11 2.86025 5.37692   4
   0  -9  11 9.31566 5.14070   2
   0  -9  11 -2.1505 3.84097   3
  -1   9 -11 7.33480 5.88621   4
  -1   9 -11 5.44387 4.82325   1
   1  -9  11 5.21429 3.26710   3
   1  -9  11 10.4419 5.33079   2
  -2   9 -11 -7.1899 5.48214   4
  -2   9 -11 -7.1335 3.96552   1
   2  -9  11 7.46212 3.48774   3
   2  -9  11 3.67217 5.43378   2
  -3   9 -11 -0.5312 4.35532   1
  -3   9 -11 7.86339 5.87256   4
   3  -9  11 1.52538 3.53939   3
  -4   9 -11 -11.465 4.81053   1
  -4   9 -11 8.10526 6.33104   4
   4  -9  11 -1.4379 3.62868   3
  -5   9 -11 1.43018 6.50616   4
  -5   9 -11 2.43305 5.64252   1
  -6   9 -11 5.56735 7.45369   1
  -6   9 -11 7.25571 6.82780   4
   6  -9  11 5.07296 3.74170   3
  -5  -8  11 3.93292 5.92599   2
  -4  -8  11 6.30577 6.37393   2
   3   8 -11 5.08350 4.80111   1
  -3  -8  11 5.70352 5.24895   2
   2   8 -11 2.74303 4.82159   4
   2   8 -11 3.05212 4.33326   1
  -2  -8  11 1.33615 5.40282   2
  -2  -8  11 3.32948 3.84549   3
   1   8 -11 -3.2619 4.80610   4
   1   8 -11 -0.9660 3.82966   1
  -1  -8  11 -2.2828 3.36914   3
  -1  -8  11 -1.4698 5.03555   2
   0   8 -11 -1.8340 4.74326   4
   0   8 -11 -0.8291 4.25565   1
   0  -8  11 0.13052 3.24477   3
   0  -8  11 5.87972 4.86808   2
  -1   8 -11 4.19932 5.26943   4
  -1   8 -11 1.33043 4.02435   1
   1  -8  11 1.72085 2.67489   3
   1  -8  11 5.95445 5.14255   2
  -2   8 -11 3.05297 5.29785   4
  -2   8 -11 2.29023 3.46051   1
   2  -8  11 6.02396 3.23480   3
   2  -8  11 4.14885 4.92772   2
  -3   8 -11 -3.8501 3.97987   1
  -3   8 -11 -0.7114 5.19208   4
   3  -8  11 -2.4424 3.11040   3
  -4   8 -11 9.12231 4.83587   1
  -4   8 -11 9.04881 5.82886   4
   4  -8  11 -1.8770 2.84047   3
  -5   8 -11 10.6983 5.19307   1
  -5   8 -11 -0.7047 6.03121   4
   5  -8  11 -4.1520 2.99234   3
  -6   8 -11 -0.6570 6.33384   1
  -6   8 -11 12.1732 6.93056   4
   6  -8  11 -2.3971 3.19885   3
  -7   8 -11 7.32897 7.90208   1
  -7   8 -11 -3.1253 9.13774   4
   7  -8  11 1.11202 3.63845   3
   6   7 -11 3.98675 5.26333   1
  -6  -7  11 -2.7001 5.53516   2
   5   7 -11 -0.4772 5.54215   1
  -5  -7  11 3.88764 6.20667   2
   4   7 -11 6.42564 4.48375   1
  -4  -7  11 0.01278 5.05590   2
   3   7 -11 3.58050 3.91125   1
  -3  -7  11 2.07964 3.90848   3
  -3  -7  11 -4.0125 4.61376   2
   2   7 -11 0.63798 3.38518   1
   2   7 -11 -2.2148 4.22741   4
  -2  -7  11 -5.3245 4.21901   2
  -2  -7  11 4.56970 3.29150   3
   1   7 -11 3.01421 3.55229   1
   1   7 -11 7.63769 4.11070   4
  -1  -7  11 2.15892 4.64790   2
  -1  -7  11 -0.1005 3.04617   3
   0   7 -11 -0.2640 4.26706   4
   0   7 -11 0.98334 3.16820   1
   0  -7  11 3.80049 3.89175   2
   0  -7  11 6.08405 3.09557   3
  -1   7 -11 3.57629 3.27046   1
   1  -7  11 -0.9085 2.40470   3
   1  -7  11 -6.4664 5.42744   2
  -2   7 -11 -0.4637 4.70732   4
  -2   7 -11 0.27107 3.52730   1
   2  -7  11 1.64387 2.63064   3
  -3   7 -11 6.91785 4.85161   4
  -3   7 -11 0.00823 3.52281   1
   3  -7  11 1.01243 2.67796   3
  -4   7 -11 7.97694 3.99933   1
  -4   7 -11 -3.7730 5.63113   4
   4  -7  11 -1.1691 2.74595   3
  -5   7 -11 5.13559 4.67742   1
  -5   7 -11 7.98867 5.97471   4
   5  -7  11 -3.2418 2.84871   3
  -6   7 -11 0.23341 5.46166   4
  -6   7 -11 10.5065 6.41160   1
  -7   7 -11 27.7009 7.42414   1
  -7   7 -11 -3.3329 6.82957   4
   7  -7  11 -4.1828 3.44767   3
   7   6 -11 1.67501 4.80480   1
  -7  -6  11 6.63917 6.34226   2
   6   6 -11 -0.0155 4.30765   1
  -6  -6  11 1.19608 5.62910   2
   5   6 -11 -3.5520 4.16040   1
  -5  -6  11 5.23436 5.18656   2
   4   6 -11 0.78615 3.27093   1
  -4  -6  11 1.54024 4.31520   2
  -4  -6  11 1.60345 3.54442   3
   3   6 -11 1.28278 3.58711   1
  -3  -6  11 4.18335 4.59205   2
  -3  -6  11 9.38455 3.68794   3
   2   6 -11 -1.8723 3.17620   1
   2   6 -11 -7.7493 3.15269   4
  -2  -6  11 -3.6657 2.81555   3
  -2  -6  11 -1.2808 4.22293   2
   1   6 -11 -0.0248 2.89848   1
   1   6 -11 5.35388 3.47068   4
  -1  -6  11 10.2803 4.20283   2
  -1  -6  11 -0.6210 2.91121   3
   0   6 -11 4.93709 3.28903   1
   0   6 -11 1.94317 3.50425   4
   0  -6  11 4.16963 2.48617   3
   0  -6  11 8.29942 5.08040   2
  -1   6 -11 -1.0212 2.95127   1
  -1   6 -11 6.82372 4.20748   4
   1  -6  11 7.26165 2.38702   3
   1  -6  11 0.98647 4.56228   2
  -2   6 -11 0.69779 3.43373   1
  -2   6 -11 3.94292 4.83938   4
   2  -6  11 -1.1534 3.61940   2
   2  -6  11 0.57142 2.52038   3
  -3   6 -11 7.17585 3.58988   1
  -3   6 -11 0.10278 4.35854   4
   3  -6  11 0.52613 2.40479   3
  -4   6 -11 3.54006 3.72565   1
  -4   6 -11 2.46638 4.72391   4
   4  -6  11 -4.6291 2.44698   3
  -5   6 -11 9.62785 4.48526   1
  -5   6 -11 1.30096 5.16764   4
   5  -6  11 -1.0258 2.89358   3
  -6   6 -11 5.20024 6.46774   4
  -6   6 -11 -11.001 5.41501   1
   6  -6  11 1.01735 3.22089   3
  -7   6 -11 -11.459 6.17519   4
  -7   6 -11 6.11872 6.80514   1
   7  -6  11 -2.0498 3.13379   3
   7   5 -11 -1.8349 4.24122   1
  -7  -5  11 4.43871 5.87436   2
   6   5 -11 2.00320 3.75229   1
  -6  -5  11 -3.8588 4.98325   2
   5   5 -11 -3.2922 3.63259   1
  -5  -5  11 4.26269 4.97408   3
  -5  -5  11 2.74731 4.50772   2
   4   5 -11 6.75732 3.53330   1
  -4  -5  11 9.93777 4.75639   2
  -4  -5  11 7.51064 3.51714   3
   3   5 -11 4.86066 3.07342   1
  -3  -5  11 6.77158 3.41781   3
  -3  -5  11 4.67046 4.18381   2
   2   5 -11 -1.6896 3.15210   1
   2   5 -11 0.34420 2.91364   4
  -2  -5  11 0.54539 2.68316   3
  -2  -5  11 1.12435 3.85512   2
   1   5 -11 -0.1894 2.69178   1
   1   5 -11 6.74482 3.09751   4
  -1  -5  11 6.46066 3.95438   2
  -1  -5  11 -1.2261 2.44711   3
   0   5 -11 9.07109 3.24867   4
   0   5 -11 12.4847 3.22753   1
   0  -5  11 13.8534 3.99707   2
   0  -5  11 7.37798 2.48646   3
  -1   5 -11 12.5140 3.73250   4
  -1   5 -11 6.00173 2.70984   1
   1  -5  11 6.97745 2.15871   3
   1  -5  11 6.39058 3.56195   2
  -2   5 -11 4.97077 4.12061   4
  -2   5 -11 10.3633 3.42614   1
   2  -5  11 1.94046 2.26278   3
   2  -5  11 2.30164 3.48005   2
  -3   5 -11 -2.2867 3.21006   1
  -3   5 -11 -6.7385 3.79170   4
   3  -5  11 1.81644 2.53977   3
  -4   5 -11 3.60363 4.97971   4
  -4   5 -11 6.22656 3.19185   1
   4  -5  11 1.13193 2.87491   3
  -5   5 -11 -3.5464 4.53242   1
  -5   5 -11 -4.6103 4.83565   4
   5  -5  11 -3.4615 2.56637   3
  -6   5 -11 0.27796 5.20434   1
  -6   5 -11 -9.2441 5.22870   4
   6  -5  11 -2.1307 3.00753   3
  -7   5 -11 -6.0589 6.08469   4
  -7   5 -11 9.44203 6.64308   1
   7  -5  11 0.12775 3.44965   3
   8   4 -11 1.65473 4.64699   1
  -8  -4  11 3.84122 5.95488   2
   7   4 -11 1.67808 3.70200   1
  -7  -4  11 -2.5222 5.12517   2
   6   4 -11 2.90247 3.79590   1
  -6  -4  11 2.85244 4.64523   2
  -6  -4  11 10.4114 4.37610   3
   5   4 -11 10.9715 3.86457   1
  -5  -4  11 18.6621 3.89620   3
  -5  -4  11 20.2344 5.25679   2
   4   4 -11 13.1102 3.46897   1
  -4  -4  11 16.6025 4.52951   2
  -4  -4  11 10.0634 3.21957   3
   3   4 -11 14.7555 3.47742   1
  -3  -4  11 14.0657 3.33944   3
  -3  -4  11 22.7911 4.80925   2
   2   4 -11 8.48784 2.68061   4
   2   4 -11 7.08785 3.22767   1
  -2  -4  11 16.6635 4.47386   2
  -2  -4  11 9.13040 2.53034   3
   1   4 -11 0.96021 2.58285   1
   1   4 -11 -4.7251 2.71510   4
  -1  -4  11 -0.7928 2.05108   3
  -1  -4  11 7.90362 3.83311   2
   0   4 -11 16.4876 3.27654   1
   0   4 -11 13.4769 3.14825   4
   0  -4  11 15.7235 2.63211   3
   0  -4  11 15.3508 3.55538   2
  -1   4 -11 13.3491 3.28952   1
  -1   4 -11 18.0093 3.41633   4
   1  -4  11 10.7218 2.41511   3
   1  -4  11 17.6376 3.48566   2
  -2   4 -11 4.31893 3.26254   1
  -2   4 -11 6.12136 6.20657   4
   2  -4  11 3.37250 2.97894   2
   2  -4  11 7.04538 2.29016   3
  -3   4 -11 -2.0500 2.71513   1
  -3   4 -11 -1.8114 7.00993   4
   3  -4  11 1.42330 2.55466   3
  -4   4 -11 3.46821 3.66953   1
  -4   4 -11 -5.5671 4.44175   4
   4  -4  11 1.09521 2.37100   3
  -5   4 -11 0.95421 4.75707   1
  -5   4 -11 -0.0085 4.69554   4
   5  -4  11 -1.8186 2.60837   3
  -6   4 -11 18.9571 5.24388   1
  -6   4 -11 0.06288 5.16339   4
   6  -4  11 0.90151 3.05167   3
  -7   4 -11 -0.4744 7.12231   1
  -7   4 -11 9.59162 6.11115   4
   9   3 -11 -0.0009 4.37020   1
  -9  -3  11 4.01415 6.02672   2
  -8  -3  11 0.33912 8.69298   2
   7   3 -11 -0.7242 3.70600   1
  -7  -3  11 2.27157 4.76443   2
  -7  -3  11 -0.7342 5.20498   3
   6   3 -11 1.75673 3.17090   1
  -6  -3  11 1.31711 3.56083   3
  -6  -3  11 8.94424 4.70466   2
   5   3 -11 22.7852 4.15080   1
  -5  -3  11 25.5904 5.02474   2
  -5  -3  11 22.8511 3.89386   3
   4   3 -11 29.1744 4.30125   1
  -4  -3  11 28.0896 3.84979   3
  -4  -3  11 35.3299 4.92565   2
   3   3 -11 25.6229 3.83509   1
  -3  -3  11 23.9385 4.57474   2
  -3  -3  11 21.0236 3.55462   3
   2   3 -11 7.41025 2.18552   4
   2   3 -11 3.51467 2.36147   1
  -2  -3  11 6.45053 3.69080   2
  -2  -3  11 5.60795 2.26421   3
   1   3 -11 0.91060 2.29967   4
   1   3 -11 0.55927 2.60731   1
  -1  -3  11 0.45098 3.59258   2
  -1  -3  11 -0.0695 1.79206   3
   0   3 -11 13.5538 3.05993   1
   0   3 -11 21.5359 3.08054   4
   0  -3  11 15.0642 2.46133   3
   0  -3  11 18.3281 3.43346   2
  -1   3 -11 16.8713 3.55703   1
  -1   3 -11 19.9050 3.34471   4
   1  -3  11 16.6929 3.29077   2
   1  -3  11 18.1954 2.68001   3
  -2   3 -11 5.78908 2.59439   2
  -2   3 -11 6.39132 2.63497   1
  -2   3 -11 11.5361 3.42470   4
   2  -3  11 10.5647 2.23938   3
  -3   3 -11 0.11227 4.49217   4
  -3   3 -11 -1.6391 3.20379   1
   3  -3  11 2.88630 2.20199   3
  -4   3 -11 -4.9638 4.07769   4
  -4   3 -11 -0.5195 3.48869   1
   4  -3  11 -0.1714 2.09545   3
  -5   3 -11 -1.1156 4.32509   1
  -5   3 -11 2.51931 4.77998   4
   5  -3  11 -0.8191 2.63874   3
  -6   3 -11 -1.4926 4.60197   4
  -6   3 -11 0.65828 5.34202   1
   6  -3  11 -0.5371 3.26088   3
   6  -3  11 3.52223 4.88228   4
  -7   3 -11 -11.512 6.19751   1
   7  -3  11 -3.6183 3.69848   3
   7  -3  11 -0.4335 5.78443   4
   9   2 -11 4.06228 4.37037   1
  -9  -2  11 10.1544 5.93681   2
   8   2 -11 2.83566 3.76514   1
  -8  -2  11 13.6363 5.76099   3
  -8  -2  11 -1.2296 4.83452   2
   7   2 -11 0.86900 3.53335   1
  -7  -2  11 1.42823 4.74544   2
  -7  -2  11 2.32789 4.60992   3
   6   2 -11 3.22219 3.06868   1
  -6  -2  11 7.41001 3.52936   3
  -6  -2  11 0.96689 4.38543   2
   5   2 -11 32.4781 4.48622   1
  -5  -2  11 34.1722 4.31415   3
  -5  -2  11 37.4463 5.65278   2
   4   2 -11 52.3404 4.53908   1
  -4  -2  11 51.2038 5.23143   2
  -4  -2  11 53.0153 4.64558   3
   3   2 -11 14.0773 3.26488   1
  -3  -2  11 13.5087 3.98659   2
  -3  -2  11 17.9186 3.02123   3
   2   2 -11 2.31560 2.60675   1
  -2  -2  11 3.82779 3.59406   2
  -2  -2  11 1.28092 1.93993   3
   1   2 -11 1.33720 2.24610   1
   1   2 -11 0.88975 2.01261   4
  -1  -2  11 2.84086 2.02198   3
  -1  -2  11 -5.8616 2.89593   2
   0   2 -11 15.5806 3.11363   1
   0   2 -11 18.9286 3.01514   4
   0  -2  11 18.0156 3.45279   2
   0  -2  11 13.9976 2.51190   3
  -1   2 -11 27.9707 3.49687   2
  -1   2 -11 23.1458 3.66685   1
  -1   2 -11 29.0425 3.75875   4
   1  -2  11 29.8452 3.08188   3
   1  -2  11 25.5067 3.25193   2
  -2   2 -11 8.97217 2.64659   1
  -2   2 -11 8.20827 3.25660   4
  -2   2 -11 9.30339 2.47315   2
   2  -2  11 7.35808 2.12069   3
  -3   2 -11 1.91898 2.93018   1
  -3   2 -11 3.70313 6.72693   4
   3  -2  11 0.32088 2.32805   3
  -4   2 -11 6.23030 4.20457   1
   4  -2  11 5.13170 4.33511   4
   4  -2  11 1.78215 2.25371   3
  -5   2 -11 5.17708 4.30022   1
   5  -2  11 -2.8558 2.76617   3
   5  -2  11 3.61153 4.60357   4
  -6   2 -11 -0.4172 5.19261   1
   6  -2  11 1.48472 3.33398   3
   6  -2  11 2.69519 5.43768   4
  -7   2 -11 3.75413 6.16768   1
   7  -2  11 4.46104 3.73160   3
   7  -2  11 3.69682 5.87296   4
  10   1 -11 4.48602 4.76114   1
 -10  -1  11 7.82506 6.07720   2
   9   1 -11 -0.6034 4.28171   1
  -9  -1  11 4.84918 5.55040   2
  -9  -1  11 9.11020 6.09869   3
   8   1 -11 4.35482 4.04277   1
  -8  -1  11 12.0526 4.90461   2
  -8  -1  11 11.4907 5.65060   3
   7   1 -11 -3.6784 2.99597   1
  -7  -1  11 1.59250 4.04889   2
  -7  -1  11 -6.4144 4.34003   3
   6   1 -11 7.62986 3.43352   1
  -6  -1  11 15.5378 4.51119   2
  -6  -1  11 4.90876 3.32669   3
   5   1 -11 37.8500 4.35173   1
  -5  -1  11 35.3510 4.91113   2
  -5  -1  11 36.5942 4.66116   3
   4   1 -11 51.6219 4.44067   1
  -4  -1  11 44.7006 4.66785   2
  -4  -1  11 55.6777 4.20729   3
   3   1 -11 30.7109 3.84555   1
  -3  -1  11 38.0344 5.13644   2
  -3  -1  11 38.5783 3.63672   3
   2   1 -11 2.69695 2.42028   1
  -2  -1  11 4.92004 2.32970   3
  -2  -1  11 -4.1781 4.73256   2
   1   1 -11 3.45522 2.34289   1
  -1  -1  11 5.25315 1.86481   4
  -1  -1  11 0.67275 1.94804   3
  -1  -1  11 3.34715 2.80812   2
   0   1 -11 13.0086 3.02374   2
   0   1 -11 15.2654 3.10367   1
   0  -1  11 11.7573 2.46316   3
   0  -1  11 19.8446 2.66566   4
  -1   1 -11 18.1200 2.79690   2
  -1   1 -11 17.3991 3.36395   1
   1  -1  11 18.4017 3.31637   4
  -2   1 -11 7.10859 2.08910   2
  -2   1 -11 5.23965 2.62020   1
   2  -1  11 8.30431 3.97300   4
   2  -1  11 9.75769 2.35705   3
  -3   1 -11 8.78331 3.54458   1
   3  -1  11 1.87742 3.56439   4
   3  -1  11 0.69472 2.44985   3
  -4   1 -11 -3.4643 3.70197   1
   4  -1  11 -2.3126 2.27131   3
   4  -1  11 2.28189 4.05598   4
  -5   1 -11 1.38809 4.44903   1
   5  -1  11 -2.5272 2.80608   3
   5  -1  11 5.46422 4.70304   4
  -6   1 -11 -3.3528 5.82132   1
   6  -1  11 3.79864 3.60569   3
   6  -1  11 -14.112 4.70503   4
  -7   1 -11 -5.0347 5.95238   1
   7  -1  11 -1.3968 5.44122   4
   7  -1  11 -10.302 3.96632   3
 -10   0  11 13.9299 5.58928   2
 -10   0  11 -2.5977 6.86083   3
   9   0 -11 7.65908 3.96848   1
  -9   0  11 8.04566 5.16037   2
  -9   0  11 12.6244 6.03870   3
   8   0 -11 11.4023 4.15364   1
  -8   0  11 7.67968 4.51460   2
  -8   0  11 20.9003 5.77733   3
   7   0 -11 9.94263 3.23072   1
  -7   0  11 4.17134 3.86572   2
  -7   0  11 5.13226 4.29117   3
   6   0 -11 11.5987 3.48965   1
  -6   0  11 18.3503 4.03549   2
  -6   0  11 19.7683 3.78720   3
   5   0 -11 36.9015 4.23586   1
  -5   0  11 36.1598 4.99230   2
  -5   0  11 32.2260 4.12083   3
   4   0 -11 66.6265 4.67812   1
  -4   0  11 66.1247 5.28817   2
  -4   0  11 68.8513 5.00767   3
   3   0 -11 54.2531 4.37306   1
  -3   0  11 45.1067 4.03996   3
  -3   0  11 50.3126 4.79032   2
   2   0 -11 2.07340 2.66795   1
  -2   0  11 5.12627 3.32175   2
  -2   0  11 4.57357 2.32054   3
   1   0 -11 0.03533 2.19401   1
   1   0 -11 4.60964 2.67215   2
  -1   0  11 3.64314 1.64536   4
  -1   0  11 3.18124 1.95084   3
   0   0 -11 6.77832 2.78556   2
   0   0 -11 12.0247 3.01095   1
   0   0  11 5.59767 2.20016   3
   0   0  11 7.66012 2.17350   4
  -1   0 -11 15.1676 3.13991   1
  -1   0 -11 17.2125 2.77424   2
   1   0  11 14.4473 3.07491   4
   1   0  11 12.3996 2.36723   3
  -2   0 -11 14.5559 2.31576   2
  -2   0 -11 11.9914 3.13869   1
   2   0  11 17.3269 3.92125   4
   2   0  11 8.45134 2.51312   3
  -3   0 -11 3.82337 3.72533   1
   3   0  11 0.46411 2.55935   3
   3   0  11 4.86275 3.64612   4
  -4   0 -11 6.94819 4.20111   1
   4   0  11 -1.0121 2.72597   3
   4   0  11 -1.7731 3.92412   4
  -5   0 -11 0.45859 4.84277   1
   5   0  11 5.38625 4.47887   4
   5   0  11 0.65308 2.98231   3
  -6   0 -11 5.29050 5.85627   1
   6   0  11 2.14816 3.92250   3
   6   0  11 5.72735 4.78518   4
  10  -1 -11 11.8547 5.32776   1
 -10   1  11 7.19458 5.61988   2
 -10   1  11 3.37501 7.39108   3
   9  -1 -11 17.3244 4.82317   1
  -9   1  11 8.05813 4.58861   2
  -9   1  11 21.2034 6.64437   3
   8  -1 -11 13.9192 3.96002   1
  -8   1  11 8.04478 3.85778   2
  -8   1  11 17.0171 5.38915   3
   7  -1 -11 4.16873 3.05359   1
  -7   1  11 10.1846 3.78333   2
  -7   1  11 6.61321 4.12427   3
   6  -1 -11 23.9982 3.60570   1
  -6   1  11 32.0333 4.58034   3
  -6   1  11 26.3475 5.30521   2
   5  -1 -11 32.8847 4.22031   1
  -5   1  11 34.7686 4.78979   2
  -5   1  11 30.6885 4.06908   3
   4  -1 -11 70.8959 4.67846   1
  -4   1  11 68.0080 5.47004   2
  -4   1  11 64.6352 4.76722   3
   3  -1 -11 34.1798 3.90305   1
  -3   1  11 27.7781 4.05280   2
  -3   1  11 28.5657 3.54252   3
   2  -1 -11 13.1841 2.69652   1
  -2   1  11 13.7699 1.29405   4
  -2   1  11 10.4915 2.60262   3
   1  -1 -11 4.56527 2.63651   2
   1  -1 -11 1.83634 2.31322   1
  -1   1  11 -0.8393 2.09280   3
  -1   1  11 5.41409 1.67564   4
   0  -1 -11 4.27474 2.59508   1
   0  -1 -11 1.29213 2.45958   2
   0   1  11 1.23654 2.06071   4
   0   1  11 2.63882 2.12930   3
  -1  -1 -11 23.5396 3.76684   1
  -1  -1 -11 21.6352 2.91864   2
   1   1  11 27.7256 3.38753   4
   1   1  11 17.0690 2.95403   3
  -2  -1 -11 10.0098 2.28144   2
  -2  -1 -11 11.2710 3.96181   1
   2   1  11 11.5435 2.39704   3
   2   1  11 12.4309 3.33013   4
  -3  -1 -11 0.14777 4.01283   1
   3   1  11 2.51770 2.54914   3
   3   1  11 1.88047 3.38438   4
  -4  -1 -11 -1.2690 4.44665   1
   4   1  11 -2.1566 2.87294   3
   4   1  11 -4.2187 3.99570   4
  -5  -1 -11 2.92475 5.28899   1
   5   1  11 -0.1075 3.50742   3
   5   1  11 1.78773 4.45760   4
  -6  -1 -11 -8.7575 6.28603   1
   6   1  11 2.70760 4.42523   3
   6   1  11 1.04578 5.12714   4
  11  -2 -11 1.23045 7.77037   1
 -11   2  11 6.23429 6.18737   2
 -11   2  11 -4.4403 8.79873   3
  10  -2 -11 6.17535 4.36190   1
 -10   2  11 -12.479 6.87746   3
 -10   2  11 13.0985 7.09441   2
   9  -2 -11 13.3350 4.80049   1
  -9   2  11 22.0763 5.53257   2
  -9   2  11 32.2352 6.56173   3
   8  -2 -11 19.7449 3.93386   1
  -8   2  11 23.7204 5.08982   2
  -8   2  11 37.4576 6.23766   3
   7  -2 -11 3.60419 3.12685   1
  -7   2  11 4.13237 3.62188   2
  -7   2  11 6.37574 4.20655   3
   6  -2 -11 8.89353 3.37053   1
  -6   2  11 13.1224 3.80293   3
  -6   2  11 17.7366 4.57788   2
   5  -2 -11 37.9570 4.44976   1
  -5   2  11 29.4978 4.96457   2
  -5   2  11 28.7143 4.04845   3
   4  -2 -11 45.1719 4.36599   1
   4  -2 -11 52.0814 5.10301   2
  -4   2  11 48.2301 4.37634   3
   3  -2 -11 36.1661 3.71129   1
   3  -2 -11 52.4301 4.56622   2
  -3   2  11 36.2861 3.92681   3
   2  -2 -11 21.0126 3.37752   1
   2  -2 -11 22.6888 3.81176   2
  -2   2  11 14.0313 2.62522   3
  -2   2  11 18.5514 1.77707   4
   1  -2 -11 -0.9411 2.66272   2
   1  -2 -11 -2.1632 2.31022   1
  -1   2  11 -2.5481 1.53073   4
  -1   2  11 1.68251 2.10519   3
   0  -2 -11 1.83206 2.90284   1
   0  -2 -11 0.61976 2.36557   2
   0   2  11 1.94010 2.61609   3
   0   2  11 4.23187 2.34279   4
  -1  -2 -11 18.5432 2.90411   2
  -1  -2 -11 10.3835 3.60702   1
   1   2  11 11.9144 2.79443   3
  -2  -2 -11 0.49076 3.91456   1
  -2  -2 -11 1.18179 2.23053   2
   2   2  11 3.66722 3.14662   4
   2   2  11 7.57204 2.83935   3
  -3  -2 -11 2.76222 4.46307   1
   3   2  11 8.80462 3.82490   4
   3   2  11 -1.9279 2.85065   3
  -4  -2 -11 -2.5961 4.84592   1
   4   2  11 -0.6858 3.24749   3
   4   2  11 2.76637 4.09419   4
  -5  -2 -11 -10.035 12.3033   1
   5   2  11 -0.0126 4.21344   4
   5   2  11 -6.2688 3.74155   3
   6   2  11 -7.6156 4.79208   3
   6   2  11 6.62422 5.64944   4
  11  -3 -11 3.10086 5.32106   1
 -11   3  11 -8.4223 5.83138   2
  10  -3 -11 7.06338 4.53934   1
 -10   3  11 -10.565 8.06942   3
 -10   3  11 4.01811 5.07377   2
   9  -3 -11 21.2190 4.16557   1
  -9   3  11 26.6329 6.93916   3
  -9   3  11 22.4167 5.78880   2
   8  -3 -11 24.2421 4.26914   1
  -8   3  11 17.6222 5.55450   2
  -8   3  11 38.2399 6.15984   3
   7  -3 -11 0.66300 2.87618   1
  -7   3  11 4.71470 4.01844   2
  -7   3  11 2.23664 4.08884   3
   6  -3 -11 10.7407 4.04228   2
   6  -3 -11 8.22978 3.24278   1
  -6   3  11 6.70433 3.56219   3
   5  -3 -11 20.7898 3.59000   1
   5  -3 -11 26.9920 4.39362   2
  -5   3  11 17.6943 3.39205   3
   4  -3 -11 30.6578 3.71819   1
   4  -3 -11 34.7295 4.43789   2
  -4   3  11 35.8394 4.07091   3
   3  -3 -11 41.5429 4.08244   1
   3  -3 -11 40.2463 4.95558   2
  -3   3  11 34.2362 2.15357   4
  -3   3  11 43.1686 4.20187   3
   2  -3 -11 16.0364 3.41910   2
   2  -3 -11 14.9096 3.27836   1
  -2   3  11 15.4770 2.02134   4
  -2   3  11 12.7744 3.10247   3
   1  -3 -11 -3.2447 3.03303   2
   1  -3 -11 2.33621 2.81778   1
  -1   3  11 -0.2525 2.29251   3
  -1   3  11 1.45336 1.79476   4
   0  -3 -11 2.39316 2.61804   2
   0  -3 -11 2.97571 3.18620   1
   0   3  11 6.11934 2.62339   3
   0   3  11 3.96591 2.25480   4
  -1  -3 -11 8.74803 2.60416   2
  -1  -3 -11 2.52861 3.80159   1
   1   3  11 10.9508 2.99326   4
   1   3  11 9.06274 3.05347   3
  -2  -3 -11 4.81554 3.96012   1
  -2  -3 -11 5.37910 2.42140   2
   2   3  11 0.32273 3.71478   3
   2   3  11 2.60324 3.19389   4
  -3  -3 -11 9.32614 5.62424   1
   3   3  11 5.18010 3.51694   3
   3   3  11 0.79605 3.78421   4
  -4  -3 -11 2.20962 5.76279   1
   4   3  11 -0.8597 4.25648   4
   4   3  11 3.89098 4.10051   3
  -5  -3 -11 3.72951 7.29509   1
   5   3  11 5.09592 4.99251   3
   5   3  11 5.75757 4.81452   4
  11  -4 -11 7.21886 5.94489   2
  11  -4 -11 3.35768 4.83715   1
 -11   4  11 -20.611 8.26056   3
  10  -4 -11 16.8746 6.31337   2
  10  -4 -11 2.37503 4.28887   1
 -10   4  11 -4.1421 7.21341   3
   9  -4 -11 22.4960 5.42672   2
   9  -4 -11 20.9070 4.35246   1
  -9   4  11 23.1704 6.44049   3
   8  -4 -11 12.5184 4.67433   2
   8  -4 -11 17.8896 3.66739   1
  -8   4  11 10.5679 5.12183   3
   7  -4 -11 17.4685 4.29827   2
   7  -4 -11 20.1881 3.85220   1
  -7   4  11 17.4087 4.71689   3
   6  -4 -11 -1.9157 3.45908   2
   6  -4 -11 -6.8057 2.84964   1
  -6   4  11 2.07458 3.68075   3
   5  -4 -11 24.9018 3.82667   1
   5  -4 -11 20.5510 4.57961   2
  -5   4  11 15.2879 3.60353   3
   4  -4 -11 30.6464 4.49693   2
   4  -4 -11 25.5201 3.76855   1
  -4   4  11 23.1884 4.20884   3
   3  -4 -11 27.9855 4.21322   2
   3  -4 -11 24.8967 3.54763   1
  -3   4  11 21.3435 2.50631   4
  -3   4  11 21.6111 3.39874   3
   2  -4 -11 10.8382 3.68551   2
   2  -4 -11 10.5181 3.19157   1
  -2   4  11 10.0140 3.18347   3
  -2   4  11 10.7636 2.12312   4
   1  -4 -11 -0.8746 3.28392   1
   1  -4 -11 -4.0275 2.74075   2
  -1   4  11 -0.2067 2.62860   3
  -1   4  11 6.90323 2.14259   4
   0  -4 -11 0.00147 3.87266   1
   0  -4 -11 -1.4432 2.97934   2
   0   4  11 1.05961 2.97488   3
   0   4  11 0.70098 2.59094   4
  -1  -4 -11 14.4807 4.45095   1
  -1  -4 -11 6.77772 3.29092   2
   1   4  11 3.54436 3.24910   3
   1   4  11 5.20934 2.93429   4
  -2  -4 -11 1.84730 3.38829   2
  -2  -4 -11 0.54830 5.16143   1
   2   4  11 -3.6741 3.54776   4
   2   4  11 7.30990 3.69536   3
  -3  -4 -11 2.70081 5.92830   1
   3   4  11 3.06316 3.93023   3
   3   4  11 4.90649 3.99409   4
  -4  -4 -11 3.84516 8.14164   1
   4   4  11 3.74372 4.49502   3
   4   4  11 -0.7186 4.27813   4
  11  -5 -11 13.6616 5.89996   2
  11  -5 -11 1.87956 5.12078   1
 -11   5  11 -2.4747 15.5189   3
  10  -5 -11 2.90260 4.80852   2
  10  -5 -11 4.24903 3.99675   1
 -10   5  11 -10.959 7.41200   3
   9  -5 -11 11.7681 3.95163   1
   9  -5 -11 19.8641 5.11553   2
  -9   5  11 20.0984 6.61452   3
   8  -5 -11 25.6469 4.41874   1
   8  -5 -11 31.9939 5.30485   2
  -8   5  11 29.2890 6.25777   3
   7  -5 -11 15.8900 4.70886   2
   7  -5 -11 15.1713 3.96127   1
  -7   5  11 10.7078 4.32327   3
   6  -5 -11 -0.6654 2.99079   1
   6  -5 -11 -2.7156 3.63933   2
  -6   5  11 -2.3857 3.72611   3
   5  -5 -11 44.0342 5.64296   1
   5  -5 -11 41.4286 5.34527   2
  -5   5  11 28.5190 4.28606   3
   4  -5 -11 3.29349 2.90748   1
   4  -5 -11 3.96330 3.32400   2
  -4   5  11 10.1322 3.21195   3
  -4   5  11 4.45855 2.30730   4
   3  -5 -11 24.5135 4.14515   2
   3  -5 -11 25.2886 3.90388   1
  -3   5  11 25.7908 2.72064   4
  -3   5  11 21.6385 4.10869   3
   2  -5 -11 11.5038 3.82106   1
   2  -5 -11 15.7478 3.54392   2
  -2   5  11 11.7290 3.55206   3
  -2   5  11 11.3583 2.57190   4
   1  -5 -11 4.21186 4.18374   1
   1  -5 -11 0.28811 3.24386   2
  -1   5  11 -0.1472 2.77329   4
  -1   5  11 -1.0667 3.00983   3
   0  -5 -11 6.18267 4.41551   1
   0  -5 -11 -2.1627 2.94285   2
   0   5  11 0.23043 3.34633   3
   0   5  11 -3.5224 2.94675   4
  -1  -5 -11 2.08117 5.21067   1
  -1  -5 -11 -3.2293 3.06000   2
   1   5  11 -2.3258 3.73501   3
   1   5  11 -0.3036 2.99832   4
  -2  -5 -11 4.35586 3.90030   2
  -2  -5 -11 4.08087 5.84808   1
   2   5  11 5.75304 3.78595   4
   2   5  11 -2.5465 4.13223   3
  -3  -5 -11 -4.7999 6.88750   1
   3   5  11 -4.0498 4.61139   3
   3   5  11 -3.3172 3.88018   4
  -4  -5 -11 -0.1090 8.49639   1
   4   5  11 1.06876 5.36713   3
   4   5  11 5.70917 6.30686   4
  11  -6 -11 2.83500 5.80896   2
 -11   6  11 -14.074 9.04322   3
  10  -6 -11 -9.2619 8.61430   2
 -10   6  11 5.11231 8.28089   3
   9  -6 -11 13.8578 5.32088   2
   9  -6 -11 11.5363 4.31385   1
  -9   6  11 23.9353 7.05937   3
   8  -6 -11 11.9472 4.11651   1
   8  -6 -11 9.75738 4.67000   2
  -8   6  11 15.2113 5.25374   3
   7  -6 -11 -6.2596 3.83053   1
   7  -6 -11 6.50338 4.34073   2
  -7   6  11 7.79580 4.53399   3
   6  -6 -11 4.34448 3.65814   2
   6  -6 -11 -1.8625 5.00835   1
  -6   6  11 -0.3548 3.68165   3
   5  -6 -11 24.0869 6.45410   1
   5  -6 -11 12.6289 4.01216   2
  -5   6  11 8.51675 3.87044   3
   4  -6 -11 -1.6655 3.25698   1
   4  -6 -11 -2.8629 3.41939   2
  -4   6  11 4.65473 2.82928   4
  -4   6  11 1.20642 3.33418   3
   3  -6 -11 33.4212 4.78025   1
   3  -6 -11 42.9097 5.07472   2
  -3   6  11 30.8146 3.62784   4
  -3   6  11 24.7947 4.23345   3
   2  -6 -11 -3.3819 3.08603   2
   2  -6 -11 10.8110 4.62223   1
  -2   6  11 1.19307 3.68486   3
  -2   6  11 1.39386 2.88413   4
   1  -6 -11 9.06828 4.59136   1
   1  -6 -11 1.42854 3.32719   2
  -1   6  11 -1.3940 3.50688   3
  -1   6  11 -1.8376 2.82586   4
   0  -6 -11 -5.1084 5.19281   1
   0  -6 -11 5.03252 3.43922   2
   0   6  11 0.37391 4.09460   3
   0   6  11 2.16765 3.35893   4
  -1  -6 -11 0.33877 3.42438   2
  -1  -6 -11 1.51070 5.47059   1
   1   6  11 -2.5514 3.68091   4
   1   6  11 0.12280 4.95239   3
  -2  -6 -11 3.48328 7.03539   1
   2   6  11 4.47254 5.38038   3
   2   6  11 2.84846 4.07111   4
  -3  -6 -11 12.7054 9.03920   1
   3   6  11 3.33325 5.94197   3
   3   6  11 0.65714 4.20206   4
  11  -7 -11 -0.0426 5.39861   2
 -11   7  11 -6.7818 9.66410   3
  10  -7 -11 6.12685 5.11631   2
 -10   7  11 -5.0200 7.25387   3
   9  -7 -11 6.52109 4.93266   2
  -9   7  11 13.0971 6.57972   3
   8  -7 -11 8.41783 4.80404   2
  -8   7  11 12.7177 5.03976   3
   7  -7 -11 4.98073 3.62922   2
   7  -7 -11 9.38652 3.57330   1
  -7   7  11 6.59476 4.57436   3
   6  -7 -11 -1.3666 3.31833   1
   6  -7 -11 1.70720 4.13424   2
  -6   7  11 -1.7764 3.90954   3
   5  -7 -11 1.43402 3.99796   1
   5  -7 -11 3.53095 3.51342   2
  -5   7  11 4.46769 3.91627   3
  -5   7  11 -1.6873 4.11392   4
   4  -7 -11 11.4083 3.93992   1
   4  -7 -11 7.09901 3.61697   2
  -4   7  11 3.44799 4.35841   3
  -4   7  11 3.27914 3.17029   4
   3  -7 -11 13.3628 3.84896   2
   3  -7 -11 5.44125 4.63121   1
  -3   7  11 9.71178 3.47295   4
  -3   7  11 13.2588 4.28883   3
   2  -7 -11 -2.8243 3.25403   2
   2  -7 -11 8.59239 4.72331   1
  -2   7  11 1.01137 3.27347   4
  -2   7  11 -4.9993 4.02396   3
   1  -7 -11 -1.9423 3.57115   2
   1  -7 -11 -1.7997 5.48501   1
  -1   7  11 6.99543 4.62152   3
  -1   7  11 -1.5270 3.05152   4
   0  -7 -11 -5.4711 3.62667   2
   0  -7 -11 -1.5334 6.08042   1
   0   7  11 11.6198 4.81018   3
   0   7  11 0.78324 3.86718   4
  -1  -7 -11 -3.1424 4.10212   2
  -1  -7 -11 8.74425 7.24953   1
   1   7  11 4.39134 5.43473   3
   1   7  11 4.82957 3.88571   4
  -2  -7 -11 7.63785 9.21227   1
   2   7  11 0.64769 6.33965   3
   2   7  11 -7.8416 4.34284   4
  10  -8 -11 7.26269 5.04868   2
 -10   8  11 16.3511 7.95012   3
   9  -8 -11 1.66566 7.76430   2
  -9   8  11 4.48055 9.69805   3
   8  -8 -11 -0.2835 4.43289   2
  -8   8  11 7.26683 5.58063   3
   7  -8 -11 -2.3450 3.70281   2
  -7   8  11 7.92611 5.23252   3
   6  -8 -11 1.55159 3.44518   2
   6  -8 -11 2.08327 4.50152   1
  -6   8  11 1.77703 4.21900   3
   5  -8 -11 -1.6338 4.14185   1
   5  -8 -11 -5.0191 3.76014   2
  -5   8  11 -1.6729 4.39914   4
  -5   8  11 -2.9632 4.17682   3
   4  -8 -11 0.31967 3.47652   2
   4  -8 -11 1.87439 4.49299   1
  -4   8  11 -1.7041 4.47737   3
  -4   8  11 -4.6158 7.11640   4
   3  -8 -11 6.34744 4.88905   1
   3  -8 -11 3.46724 3.50388   2
  -3   8  11 9.53739 4.01828   4
  -3   8  11 4.26823 4.72989   3
   2  -8 -11 -0.5727 3.73115   2
   2  -8 -11 -0.9781 5.38191   1
  -2   8  11 4.45834 3.88553   4
  -2   8  11 3.22628 5.30387   3
   1  -8 -11 5.20324 3.72744   2
   1  -8 -11 -4.8932 6.02136   1
  -1   8  11 -1.3063 5.74582   3
  -1   8  11 -6.9371 3.63471   4
   0  -8 -11 -4.4305 3.98171   2
   0  -8 -11 1.08117 6.77719   1
   0   8  11 4.89881 5.74697   3
   0   8  11 -0.7071 4.20614   4
  -1  -8 -11 3.28992 8.17738   1
  -1  -8 -11 -4.2714 4.48384   2
   1   8  11 -0.1847 4.61634   4
   1   8  11 2.14649 6.40124   3
  10  -9 -11 0.03321 5.73974   2
 -10   9  11 -8.2204 7.83544   3
   9  -9 -11 4.03925 5.21265   2
  -9   9  11 3.52037 7.21374   3
   8  -9 -11 9.22193 4.52684   2
  -8   9  11 4.33610 6.37516   3
   7  -9 -11 6.65246 4.36746   2
  -7   9  11 6.69224 5.19430   3
   6  -9 -11 1.68902 3.94363   2
  -6   9  11 8.04418 5.26714   3
   5  -9 -11 -5.2036 3.70015   2
  -5   9  11 -7.9514 4.86950   3
  -5   9  11 -2.6213 4.96582   4
   4  -9 -11 0.03041 3.88246   2
  -4   9  11 6.31274 5.17291   3
   3  -9 -11 -3.2499 5.71539   1
   3  -9 -11 -1.8253 3.85977   2
  -3   9  11 13.3436 4.57565   4
  -3   9  11 3.98203 5.33656   3
   2  -9 -11 2.23292 4.38819   2
   2  -9 -11 -9.9379 6.33218   1
  -2   9  11 8.92858 5.60381   3
  -2   9  11 -4.3615 4.15286   4
   1  -9 -11 -1.0383 3.83334   2
   1  -9 -11 10.1862 7.27747   1
  -1   9  11 -1.2824 6.41182   3
  -1   9  11 0.01647 4.49180   4
   9 -10 -11 6.44105 4.43095   2
   8 -10 -11 -2.1322 4.27467   2
  -8  10  11 -2.2249 6.00080   3
   7 -10 -11 2.92743 4.47515   2
  -7  10  11 -5.7248 5.50011   3
   6 -10 -11 -2.2687 4.29016   2
   5 -10 -11 -6.1566 5.05464   2
  -5  10  11 11.1588 5.93416   3
  -5  10  11 -10.052 5.58048   4
  -4  10  11 4.41806 5.41309   4
  -4  10  11 -2.7926 5.79796   3
   3 -10 -11 -8.1066 7.33592   2
  -3  10  11 0.36938 6.79439   3
  -3  10  11 13.4647 5.26752   4
   0  10 -12 -9.6448 8.90452   4
   0  10 -12 -7.1550 6.07753   1
   0 -10  12 4.54206 4.95536   3
   0 -10  12 0.77830 7.12170   2
  -1  10 -12 -7.1210 6.66042   4
  -1  10 -12 8.36184 5.10798   1
   1 -10  12 -3.6082 4.35678   3
   1 -10  12 18.3825 7.32704   2
  -2  10 -12 0.34343 7.41403   4
  -2  10 -12 1.35741 5.58985   1
   2 -10  12 1.77903 4.40371   3
   2 -10  12 -4.6434 10.1531   2
  -3  10 -12 -0.8404 5.91946   1
  -3  10 -12 -6.6229 7.32155   4
   3 -10  12 10.5751 5.06584   3
   2   9 -12 -14.448 9.19115   1
  -2  -9  12 0.53654 7.11050   2
   1   9 -12 -9.2289 4.76822   1
  -1  -9  12 0.00719 4.62665   3
  -1  -9  12 0.42442 6.43787   2
   0   9 -12 3.31859 6.35600   4
   0   9 -12 -3.6274 5.12947   1
   0  -9  12 -1.3808 6.32275   2
   0  -9  12 -3.2884 4.37615   3
  -1   9 -12 3.46435 4.80388   1
  -1   9 -12 -2.8657 6.07325   4
   1  -9  12 0.85743 3.88927   3
   1  -9  12 -4.6733 6.15858   2
  -2   9 -12 21.8727 6.70038   4
  -2   9 -12 1.77049 5.35506   1
   2  -9  12 -4.2909 4.18121   3
   2  -9  12 -3.8572 7.15698   2
  -3   9 -12 -3.2567 4.72876   1
  -3   9 -12 3.85601 6.85669   4
   3  -9  12 4.42697 3.99460   3
  -4   9 -12 16.9522 5.83261   1
  -4   9 -12 6.37957 7.37799   4
   4  -9  12 1.16739 3.69043   3
  -5   9 -12 8.64627 6.15226   1
  -5   9 -12 -4.3543 7.66404   4
   5  -9  12 -8.3070 3.68410   3
   4   8 -12 7.11136 5.25729   1
  -4  -8  12 4.48646 5.48446   2
  -3  -8  12 -1.5076 5.96888   2
   2   8 -12 -7.0278 4.52042   1
  -2  -8  12 -2.5963 4.28364   3
  -2  -8  12 2.47924 5.87603   2
   1   8 -12 -5.1130 3.84101   1
  -1  -8  12 -5.8214 3.94238   3
  -1  -8  12 -2.8235 6.11307   2
   0   8 -12 -2.5849 5.58387   4
   0   8 -12 -1.9076 4.25631   1
   0  -8  12 -4.5897 6.03730   2
   0  -8  12 -2.1227 3.60519   3
  -1   8 -12 -2.2963 5.36489   4
  -1   8 -12 -4.1533 3.99663   1
   1  -8  12 0.67970 3.19975   3
   1  -8  12 -5.8804 5.35662   2
  -2   8 -12 -0.4930 5.87065   4
  -2   8 -12 -1.2426 4.01438   1
   2  -8  12 16.2771 6.14624   2
   2  -8  12 1.40615 3.27458   3
  -3   8 -12 -4.6453 4.31199   1
  -3   8 -12 4.14653 6.26818   4
   3  -8  12 3.44717 3.63953   3
  -4   8 -12 11.7924 4.82069   1
  -4   8 -12 11.4562 6.63174   4
   4  -8  12 0.22957 3.94063   3
  -5   8 -12 10.4289 6.22778   1
  -5   8 -12 15.1495 7.24318   4
   5  -8  12 0.04878 3.43413   3
  -6   8 -12 4.87680 7.01314   1
  -6   8 -12 4.20967 7.31745   4
   6  -8  12 -5.0545 3.76635   3
   5   7 -12 6.37015 4.32960   1
  -5  -7  12 1.27919 6.00390   2
  -4  -7  12 6.91764 5.93660   2
   3   7 -12 5.48413 4.44599   1
  -3  -7  12 -3.1727 4.46469   3
  -3  -7  12 13.7219 5.36485   2
   2   7 -12 -6.1823 3.67117   1
  -2  -7  12 7.27082 5.12685   2
  -2  -7  12 -0.8088 3.82454   3
   1   7 -12 -4.8148 3.89582   1
  -1  -7  12 0.45537 5.17710   2
  -1  -7  12 -3.1323 3.12957   3
   0   7 -12 0.43781 3.54815   1
   0   7 -12 -2.6142 4.80828   4
   0  -7  12 0.57812 2.93444   3
   0  -7  12 12.3603 5.49119   2
  -1   7 -12 -1.0461 5.10711   4
  -1   7 -12 -2.4592 3.32463   1
   1  -7  12 2.26836 5.06306   2
   1  -7  12 0.23922 2.82707   3
  -2   7 -12 3.18049 3.99639   1
  -2   7 -12 8.09461 5.36293   4
   2  -7  12 3.35313 2.92395   3
   2  -7  12 -1.1359 7.65134   2
  -3   7 -12 2.70982 3.98464   1
  -3   7 -12 -1.7182 5.60131   4
   3  -7  12 -0.8669 2.84693   3
  -4   7 -12 0.66661 4.41195   1
  -4   7 -12 7.20476 5.93875   4
   4  -7  12 -1.6050 3.22565   3
  -5   7 -12 -12.760 6.06244   4
  -5   7 -12 1.91774 5.80536   1
   5  -7  12 -0.7764 3.40710   3
  -6   7 -12 -4.9700 6.44644   4
  -6   7 -12 -2.2878 7.33625   1
   6  -7  12 -1.2583 3.50000   3
   6   6 -12 -5.3371 4.43650   1
  -6  -6  12 7.96097 6.08218   2
  -5  -6  12 -0.3358 5.63087   2
   4   6 -12 -2.4479 3.87952   1
  -4  -6  12 -3.9105 4.96187   2
  -4  -6  12 3.45678 3.97782   3
   3   6 -12 5.65580 4.03585   1
  -3  -6  12 9.62241 5.32820   2
  -3  -6  12 4.08257 3.78198   3
   2   6 -12 0.42019 3.49725   1
  -2  -6  12 9.46444 3.58088   3
  -2  -6  12 5.88784 4.81219   2
   1   6 -12 -1.2975 3.36763   1
   1   6 -12 -1.1094 4.13966   4
  -1  -6  12 -1.6554 2.94132   3
  -1  -6  12 -8.4560 4.52849   2
   0   6 -12 -2.4058 3.98885   4
   0   6 -12 5.94119 3.83133   1
   0  -6  12 2.05790 4.67271   2
   0  -6  12 1.84342 2.74256   3
  -1   6 -12 -0.3015 4.63129   4
  -1   6 -12 1.76753 3.24190   1
   1  -6  12 -2.0196 2.58049   3
   1  -6  12 -5.2401 4.65243   2
  -2   6 -12 -6.4457 4.66446   4
  -2   6 -12 3.52493 3.53400   1
   2  -6  12 3.32115 2.72254   3
  -3   6 -12 5.09176 4.97288   4
  -3   6 -12 2.81141 3.97775   1
   3  -6  12 -3.6351 2.77380   3
  -4   6 -12 0.00304 5.42111   4
  -4   6 -12 2.03793 4.32802   1
   4  -6  12 0.15194 2.61361   3
  -5   6 -12 5.50058 5.09212   1
  -5   6 -12 3.35978 6.11839   4
   5  -6  12 4.48121 3.65036   3
  -6   6 -12 -12.648 6.49913   4
  -6   6 -12 -8.5223 6.11743   1
   6  -6  12 1.48789 3.69624   3
   7   5 -12 -4.5560 4.30335   1
  -7  -5  12 6.35149 6.05689   2
   6   5 -12 1.92899 4.58290   1
  -6  -5  12 2.11373 6.23480   2
   5   5 -12 -1.4563 3.73233   1
  -5  -5  12 7.56679 4.34330   3
  -5  -5  12 1.40340 5.56281   2
   4   5 -12 3.13023 3.75867   1
  -4  -5  12 6.20608 5.26929   2
  -4  -5  12 1.01983 3.72812   3
   3   5 -12 6.79738 3.86642   1
  -3  -5  12 16.5363 5.17076   2
  -3  -5  12 4.40670 3.68658   3
   2   5 -12 6.60253 3.43890   1
  -2  -5  12 11.8566 5.05199   2
  -2  -5  12 8.42214 3.41410   3
   1   5 -12 2.58273 3.55999   4
   1   5 -12 1.63935 3.39451   1
  -1  -5  12 -0.4227 2.76753   3
  -1  -5  12 2.03923 4.48882   2
   0   5 -12 -0.6167 3.54783   4
   0   5 -12 1.29340 3.11163   1
   0  -5  12 0.45224 4.31152   2
   0  -5  12 -0.6517 2.55281   3
  -1   5 -12 -0.8895 3.07804   1
  -1   5 -12 -5.1892 3.73027   4
   1  -5  12 4.93459 4.22506   2
   1  -5  12 0.80379 2.37024   3
  -2   5 -12 3.60359 4.90926   4
  -2   5 -12 4.33810 3.29004   1
   2  -5  12 -0.7444 2.29837   3
  -3   5 -12 9.18953 3.98801   1
  -3   5 -12 -0.1686 4.56892   4
   3  -5  12 4.12767 2.32561   3
  -4   5 -12 1.19749 4.85094   4
  -4   5 -12 -1.0996 3.83971   1
   4  -5  12 3.01977 3.17349   3
  -5   5 -12 -5.0761 5.56318   1
  -5   5 -12 -9.3752 5.13711   4
   5  -5  12 -0.1977 3.08629   3
  -6   5 -12 -4.4709 5.48049   1
  -6   5 -12 -6.2709 6.03289   4
   6  -5  12 5.88515 3.21444   3
   8   4 -12 -0.9097 4.64887   1
  -8  -4  12 9.61805 5.92535   2
   7   4 -12 -0.4850 4.48267   1
  -7  -4  12 2.15081 5.85850   2
   6   4 -12 3.24056 3.72417   1
  -6  -4  12 -0.1999 4.68803   2
  -6  -4  12 1.97050 4.91125   3
   5   4 -12 1.71972 3.31945   1
  -5  -4  12 7.56284 3.98507   3
  -5  -4  12 4.54653 4.75123   2
   4   4 -12 -2.5370 3.15566   1
  -4  -4  12 2.19859 4.71870   2
  -4  -4  12 -2.6914 3.23544   3
   3   4 -12 2.99330 3.28484   1
  -3  -4  12 0.98012 3.31956   3
  -3  -4  12 7.54057 4.40502   2
   2   4 -12 22.0746 4.06642   1
  -2  -4  12 34.5838 4.26771   3
  -2  -4  12 35.2704 5.53840   2
   1   4 -12 -3.9197 2.94047   4
   1   4 -12 3.43100 3.06699   1
  -1  -4  12 -0.0491 2.25301   3
  -1  -4  12 1.94212 7.49344   2
   0   4 -12 -0.4033 3.10343   4
   0   4 -12 -3.6363 2.48450   1
   0  -4  12 0.53635 2.54457   3
  -1   4 -12 -0.5841 3.48155   4
  -1   4 -12 -0.3067 3.03449   1
   1  -4  12 0.05007 2.41708   3
   1  -4  12 -3.5412 3.39143   2
  -2   4 -12 -1.1133 4.15902   4
  -2   4 -12 6.20187 3.15515   1
   2  -4  12 0.22564 2.48080   3
  -3   4 -12 3.37587 3.16259   1
   3  -4  12 0.40448 2.21916   3
  -4   4 -12 0.73091 3.93620   1
  -4   4 -12 -2.8759 5.07981   4
   4  -4  12 2.06086 2.56062   3
  -5   4 -12 -1.6727 5.03154   1
  -5   4 -12 0.23773 5.53394   4
   5  -4  12 -1.4104 2.88505   3
  -6   4 -12 27.7095 10.3538   1
  -6   4 -12 3.81779 6.11195   4
   6  -4  12 -0.8313 4.11764   3
   8   3 -12 5.50913 4.57852   1
  -8  -3  12 -3.7770 5.62031   2
   7   3 -12 0.86683 4.10607   1
  -7  -3  12 1.82518 5.01229   2
  -7  -3  12 -1.7831 5.35465   3
   6   3 -12 8.89505 3.71186   1
  -6  -3  12 -0.8069 4.46862   3
  -6  -3  12 9.84093 4.64883   2
   5   3 -12 2.06611 3.05148   1
  -5  -3  12 2.28208 4.47795   2
  -5  -3  12 2.19243 3.61072   3
   4   3 -12 -0.0754 3.24523   1
  -4  -3  12 -0.1320 3.18628   3
  -4  -3  12 5.78096 4.12699   2
   3   3 -12 16.3323 3.63994   1
  -3  -3  12 15.9378 4.71867   2
  -3  -3  12 14.1062 3.27779   3
   2   3 -12 35.2025 4.25683   1
  -2  -3  12 43.9847 4.02581   3
  -2  -3  12 38.0290 5.14450   2
   1   3 -12 3.56759 2.67441   4
   1   3 -12 1.49355 2.86333   1
  -1  -3  12 -0.9504 3.73703   2
  -1  -3  12 -3.0340 2.16038   3
   0   3 -12 8.14600 2.83466   1
   0   3 -12 15.8736 3.22545   4
   0  -3  12 13.3608 3.83204   2
   0  -3  12 8.38644 2.58950   3
  -1   3 -12 -1.1010 3.22037   4
  -1   3 -12 -2.3370 2.87416   1
   1  -3  12 -1.5554 3.25616   2
   1  -3  12 4.24494 2.53521   3
  -2   3 -12 -8.2364 3.83018   4
  -2   3 -12 1.31551 2.87248   1
   2  -3  12 0.49131 2.27902   3
  -3   3 -12 7.82967 3.57943   1
  -3   3 -12 8.56112 4.66860   4
   3  -3  12 1.87378 2.56924   3
  -4   3 -12 3.30335 4.53273   1
  -4   3 -12 13.8012 5.37730   4
   4  -3  12 -0.2018 2.48150   3
  -5   3 -12 -0.5412 5.20745   4
  -5   3 -12 0.55466 4.77902   1
   5  -3  12 -2.7526 2.80642   3
   5  -3  12 -0.9998 5.01254   4
  -6   3 -12 -5.1322 6.31216   1
   6  -3  12 3.92264 5.62549   4
   9   2 -12 -1.1536 4.83405   1
  -9  -2  12 7.60691 6.06006   2
   8   2 -12 3.99144 5.34141   1
  -8  -2  12 4.24626 6.36388   3
   7   2 -12 11.0570 3.81179   1
  -7  -2  12 16.5014 5.61898   3
  -7  -2  12 4.64632 5.05380   2
   6   2 -12 9.54033 3.41777   1
  -6  -2  12 4.55402 4.32819   3
  -6  -2  12 9.18583 4.61231   2
   5   2 -12 0.39210 2.86731   1
  -5  -2  12 2.15389 3.18624   3
  -5  -2  12 -5.8413 4.16884   2
   4   2 -12 0.74522 2.61545   1
  -4  -2  12 4.98737 4.29447   2
  -4  -2  12 1.50940 3.16733   3
   3   2 -12 21.4343 3.78796   1
  -3  -2  12 22.2083 3.21763   3
  -3  -2  12 15.6502 4.53228   2
   2   2 -12 18.0324 3.66967   1
  -2  -2  12 20.7112 3.02457   3
  -2  -2  12 31.8872 7.60309   2
   1   2 -12 3.74274 2.79669   1
  -1  -2  12 10.7183 2.56987   4
  -1  -2  12 3.73416 2.11460   3
   0   2 -12 9.23583 2.96263   1
   0  -2  12 10.9733 2.96479   4
   0  -2  12 7.37182 3.29051   2
   0  -2  12 9.34308 2.16856   3
  -1   2 -12 5.76594 2.85218   1
  -1   2 -12 -4.7037 2.95018   2
   1  -2  12 -3.0626 2.27862   3
   1  -2  12 0.15446 3.04878   4
  -2   2 -12 -2.0584 2.56141   1
   2  -2  12 4.84268 2.52246   3
   2  -2  12 8.36776 4.21593   4
  -3   2 -12 1.91481 3.11658   1
   3  -2  12 1.99800 2.72754   3
   3  -2  12 9.07873 4.73908   4
  -4   2 -12 2.23608 4.54831   1
   4  -2  12 2.49260 2.65307   3
   4  -2  12 -1.0599 4.71072   4
  -5   2 -12 5.20362 4.96770   1
   5  -2  12 2.46981 5.48363   4
   5  -2  12 -4.9920 3.04004   3
  -6   2 -12 2.07536 5.53952   1
   6  -2  12 -3.2794 3.86554   3
   6  -2  12 19.3789 6.23825   4
   9   1 -12 0.14953 4.54597   1
  -9  -1  12 6.56361 6.82968   3
  -9  -1  12 0.60206 4.61598   2
   8   1 -12 2.18973 4.25042   1
  -8  -1  12 8.05636 4.84066   2
  -8  -1  12 9.57911 6.12740   3
   7   1 -12 19.5936 4.26660   1
  -7  -1  12 13.5149 4.79686   2
  -7  -1  12 24.9330 5.63188   3
   6   1 -12 18.2138 3.87133   1
  -6  -1  12 12.5355 4.46107   2
  -6  -1  12 10.8992 3.88953   3
   5   1 -12 2.48983 3.42670   1
  -5  -1  12 0.88088 2.96320   3
  -5  -1  12 -0.4013 3.50481   2
   4   1 -12 1.05461 2.97298   1
  -4  -1  12 6.35112 3.98398   2
  -4  -1  12 -1.6895 2.65571   3
   3   1 -12 20.2068 3.89233   1
  -3  -1  12 8.21937 3.96504   2
  -3  -1  12 15.1339 3.04022   3
   2   1 -12 22.0070 3.57347   1
  -2  -1  12 17.8844 2.92659   3
  -2  -1  12 28.1892 4.56501   2
   1   1 -12 15.2723 3.20213   1
  -1  -1  12 21.3902 3.66087   2
  -1  -1  12 19.8298 2.24277   4
  -1  -1  12 11.3825 2.35052   3
   0   1 -12 -0.7275 3.13726   2
   0   1 -12 3.24824 2.58414   1
   0  -1  12 4.53403 2.16206   3
   0  -1  12 6.95911 2.60899   4
  -1   1 -12 2.34409 2.78655   2
  -1   1 -12 -1.3370 2.74988   1
   1  -1  12 4.41689 2.89359   4
   1  -1  12 1.81674 2.20914   3
  -2   1 -12 2.14260 2.97840   1
   2  -1  12 2.73775 3.83332   4
   2  -1  12 -0.7123 2.06804   3
  -3   1 -12 5.20697 4.19641   1
   3  -1  12 5.47955 4.48672   4
   3  -1  12 1.46147 2.60147   3
  -4   1 -12 0.90274 4.31206   1
   4  -1  12 -2.4017 4.56037   4
   4  -1  12 5.02015 3.11724   3
  -5   1 -12 3.85297 5.02579   1
   5  -1  12 3.07145 3.48994   3
   5  -1  12 -3.3197 5.15966   4
  -6   1 -12 1.71721 6.20676   1
   6  -1  12 -1.6411 3.84129   3
   6  -1  12 -0.8479 5.35030   4
  10   0 -12 2.61983 4.95492   1
 -10   0  12 2.72785 5.65908   2
 -10   0  12 -6.7025 7.89401   3
   9   0 -12 -1.6042 4.45685   1
  -9   0  12 4.60972 6.33990   2
  -9   0  12 5.93765 6.77391   3
   8   0 -12 14.8626 4.65309   1
  -8   0  12 5.46624 4.31150   2
  -8   0  12 16.2003 6.38476   3
   7   0 -12 24.2184 4.72216   1
  -7   0  12 30.3975 5.59166   3
  -7   0  12 25.1152 5.53388   2
   6   0 -12 31.1631 4.38319   1
  -6   0  12 25.6088 4.74658   2
  -6   0  12 37.8382 4.68148   3
   5   0 -12 -2.6599 2.94431   1
  -5   0  12 3.15209 3.96490   2
  -5   0  12 3.50719 3.32255   3
   4   0 -12 -3.5206 2.61184   1
  -4   0  12 2.80953 3.87003   2
  -4   0  12 -2.8742 2.71818   3
   3   0 -12 10.5556 2.90271   1
  -3   0  12 14.4807 4.25923   2
  -3   0  12 11.8910 2.70409   3
   2   0 -12 21.8036 3.54573   1
  -2   0  12 32.5127 4.35019   2
  -2   0  12 29.6985 3.70131   3
   1   0 -12 17.3851 3.65269   2
   1   0 -12 15.8218 3.30131   1
  -1   0  12 16.2429 2.95260   3
  -1   0  12 14.8119 2.13656   4
   0   0 -12 4.39847 2.86299   1
   0   0 -12 8.48574 3.14020   2
   0   0  12 5.87199 2.20754   3
   0   0  12 2.98828 2.54296   4
  -1   0 -12 -1.6890 2.69197   1
  -1   0 -12 2.22401 2.71490   2
   1   0  12 2.49633 2.87710   4
   1   0  12 2.01186 2.23319   3
  -2   0 -12 5.12465 3.38489   1
   2   0  12 1.32168 3.53608   4
   2   0  12 5.56061 2.47734   3
  -3   0 -12 2.90277 3.83896   1
   3   0  12 4.72483 2.73816   3
   3   0  12 3.54172 3.85399   4
  -4   0 -12 11.9762 4.56110   1
   4   0  12 -3.0911 2.94764   3
   4   0  12 4.41962 4.38502   4
  -5   0 -12 1.66528 6.50136   1
   5   0  12 0.66841 5.17890   4
   5   0  12 -2.6305 3.59317   3
  -6   0 -12 5.58992 6.95594   1
   6   0  12 -8.5582 4.21699   3
 -10   1  12 6.10497 8.96571   3
 -10   1  12 1.98570 6.03904   2
   9  -1 -12 2.02463 4.20508   1
  -9   1  12 2.52104 5.64328   2
  -9   1  12 -7.7440 6.79126   3
   8  -1 -12 6.84852 3.79532   1
  -8   1  12 27.8536 6.41797   3
  -8   1  12 13.8041 5.41833   2
   7  -1 -12 23.9000 4.42813   1
  -7   1  12 32.3991 5.76160   3
  -7   1  12 21.4122 5.28283   2
   6  -1 -12 46.1632 4.81686   1
  -6   1  12 55.1916 5.57808   3
  -6   1  12 49.3725 5.85886   2
   5  -1 -12 1.33936 3.07392   1
  -5   1  12 -1.2120 3.64936   2
  -5   1  12 2.60095 3.10522   3
   4  -1 -12 0.14360 2.76152   1
  -4   1  12 -1.7391 2.64257   3
  -4   1  12 -1.7039 3.66964   2
   3  -1 -12 16.4002 4.16409   2
   3  -1 -12 11.1263 3.22361   1
  -3   1  12 7.57869 2.73646   3
   2  -1 -12 25.2620 4.05988   2
   2  -1 -12 18.4950 3.35685   1
  -2   1  12 23.3440 3.37670   3
   1  -1 -12 19.9793 3.95440   1
  -1   1  12 21.2686 2.40052   4
  -1   1  12 15.0234 3.19514   3
   0  -1 -12 6.88958 2.76410   1
   0  -1 -12 1.86653 2.92986   2
   0   1  12 7.79482 2.87161   3
   0   1  12 3.83363 2.36330   4
  -1  -1 -12 3.12686 2.73140   2
  -1  -1 -12 8.40387 3.28585   1
   1   1  12 3.37037 2.63533   3
   1   1  12 0.67558 3.31593   4
  -2  -1 -12 -3.5265 3.98230   1
   2   1  12 -1.9536 2.62893   3
   2   1  12 3.11504 3.72545   4
  -3  -1 -12 1.25443 4.82978   1
   3   1  12 0.70286 3.15320   3
   3   1  12 -3.1669 4.01834   4
  -4  -1 -12 3.80789 5.66142   1
   4   1  12 4.23104 3.26472   3
   4   1  12 -11.473 4.46149   4
  -5  -1 -12 0.27729 5.83884   1
   5   1  12 -8.9316 5.18243   4
   5   1  12 0.25028 4.12060   3
  10  -2 -12 -6.9222 4.55896   1
 -10   2  12 -9.6638 8.43255   3
 -10   2  12 13.3708 5.99760   2
   9  -2 -12 -0.5279 3.85100   1
  -9   2  12 2.36884 5.07611   2
  -9   2  12 -9.3511 7.08741   3
   8  -2 -12 9.74760 4.13042   1
  -8   2  12 18.0185 5.99257   3
  -8   2  12 10.3111 4.61407   2
   7  -2 -12 36.4928 4.83350   1
  -7   2  12 35.3809 5.76019   2
  -7   2  12 43.7172 6.38775   3
   6  -2 -12 53.0160 5.35483   1
  -6   2  12 38.4777 5.83918   2
  -6   2  12 56.4285 6.69708   3
   5  -2 -12 7.92011 4.20576   2
   5  -2 -12 0.28500 3.18359   1
  -5   2  12 10.6112 4.03031   2
  -5   2  12 3.20055 3.41879   3
   4  -2 -12 -3.3512 2.83693   1
   4  -2 -12 -0.9428 3.80341   2
  -4   2  12 1.70532 3.11035   3
   3  -2 -12 4.58090 3.48487   2
   3  -2 -12 11.4324 3.30564   1
  -3   2  12 4.30472 2.61597   3
   2  -2 -12 20.1500 4.11203   2
   2  -2 -12 22.4621 3.55997   1
  -2   2  12 15.5890 3.08237   3
   1  -2 -12 17.0946 3.74786   1
   1  -2 -12 24.7236 3.95827   2
  -1   2  12 20.7466 3.22339   3
  -1   2  12 17.3378 2.25298   4
   0  -2 -12 9.07778 3.47279   1
   0  -2 -12 1.09581 2.91864   2
   0   2  12 1.00236 2.57506   4
   0   2  12 5.28154 2.87952   3
  -1  -2 -12 3.08288 4.15098   1
  -1  -2 -12 13.2133 2.98035   2
   1   2  12 0.83382 2.83504   3
   1   2  12 1.52137 3.12655   4
  -2  -2 -12 -4.2401 4.40845   1
   2   2  12 4.44402 3.24921   3
   2   2  12 2.63104 3.49961   4
  -3  -2 -12 -0.5246 5.33336   1
   3   2  12 0.87321 3.39275   3
   3   2  12 -1.9758 3.95902   4
   4   2  12 5.12450 3.90612   3
   4   2  12 -0.3896 4.71669   4
  -5  -2 -12 -1.8901 7.23475   1
   5   2  12 5.55952 4.53420   3
   5   2  12 0.04529 5.22529   4
  10  -3 -12 1.64464 4.55723   1
 -10   3  12 -3.4331 5.70104   2
 -10   3  12 -5.6405 8.90296   3
   9  -3 -12 0.42179 4.13921   1
  -9   3  12 5.44005 5.10487   2
  -9   3  12 -5.6306 6.74608   3
   8  -3 -12 11.2055 4.04151   1
  -8   3  12 15.1736 5.04292   2
  -8   3  12 21.7329 5.83398   3
   7  -3 -12 39.0492 6.05817   2
   7  -3 -12 41.0069 5.20631   1
  -7   3  12 47.8256 6.82587   3
   6  -3 -12 23.3534 5.30842   2
   6  -3 -12 28.6770 4.54015   1
  -6   3  12 31.8278 4.75882   3
   5  -3 -12 8.42004 3.52300   1
   5  -3 -12 13.3094 4.07703   2
  -5   3  12 3.71251 2.96034   3
   4  -3 -12 -1.4908 3.73672   2
   4  -3 -12 6.14260 3.09326   1
  -4   3  12 2.40572 2.78888   3
   3  -3 -12 0.53691 2.95852   1
   3  -3 -12 5.98157 3.51054   2
  -3   3  12 6.45291 3.07022   3
   2  -3 -12 18.8105 3.68896   1
   2  -3 -12 14.7591 3.82739   2
  -2   3  12 18.0282 2.34486   4
  -2   3  12 17.4835 3.42774   3
   1  -3 -12 12.4485 4.37678   1
   1  -3 -12 11.7613 3.52977   2
  -1   3  12 12.4842 3.47780   3
  -1   3  12 13.2763 2.45705   4
   0  -3 -12 7.56378 3.46777   2
   0  -3 -12 3.85649 3.80592   1
   0   3  12 7.14588 3.06020   3
  -1  -3 -12 -1.8301 2.91357   2
  -1  -3 -12 -2.0514 4.38061   1
   1   3  12 -4.3510 3.13631   4
   1   3  12 4.97579 3.11371   3
  -2  -3 -12 12.5772 4.86796   1
   2   3  12 1.88511 3.76772   4
   2   3  12 -1.4778 3.21748   3
  -3  -3 -12 6.72720 6.47268   1
   3   3  12 1.30760 4.31830   4
   3   3  12 0.31855 4.07460   3
  -4  -3 -12 4.26176 6.75925   1
   4   3  12 -4.9698 4.64981   4
   4   3  12 -6.0914 4.46277   3
  10  -4 -12 5.18793 4.46181   1
  10  -4 -12 3.94689 5.62803   2
 -10   4  12 -5.7430 8.46426   3
   9  -4 -12 -1.4053 3.74699   1
   9  -4 -12 -3.0078 4.96839   2
  -9   4  12 1.91834 6.82071   3
   8  -4 -12 4.45230 4.07715   1
   8  -4 -12 7.30689 4.38720   2
  -8   4  12 9.04164 5.83554   3
   7  -4 -12 22.7485 4.79626   1
   7  -4 -12 15.7069 4.47345   2
  -7   4  12 13.4913 5.42487   3
   6  -4 -12 25.7470 4.82674   2
   6  -4 -12 33.6159 4.81297   1
  -6   4  12 35.3744 5.17492   3
   5  -4 -12 20.5682 3.92568   1
   5  -4 -12 18.6003 4.54847   2
  -5   4  12 21.1561 4.27922   3
   4  -4 -12 0.08168 3.10985   1
   4  -4 -12 0.35592 3.51795   2
  -4   4  12 1.54976 3.04966   3
   3  -4 -12 5.48647 3.37251   1
   3  -4 -12 5.50619 3.62659   2
  -3   4  12 1.04927 3.03380   3
   2  -4 -12 7.15727 3.39715   2
   2  -4 -12 10.1222 3.78364   1
  -2   4  12 10.1971 3.49478   3
  -2   4  12 7.84817 2.48041   4
   1  -4 -12 5.09382 3.39789   2
   1  -4 -12 6.49437 3.92716   1
  -1   4  12 13.4588 2.88897   4
  -1   4  12 2.86885 3.13143   3
   0  -4 -12 9.95992 5.08782   1
   0  -4 -12 -3.7015 6.37857   2
   0   4  12 2.28729 3.46230   4
   0   4  12 1.29062 3.24182   3
  -1  -4 -12 -1.1290 3.18764   2
  -1  -4 -12 8.63747 4.91886   1
   1   4  12 4.63042 3.28060   4
   1   4  12 1.06625 3.44880   3
  -2  -4 -12 0.49108 5.59379   1
   2   4  12 -1.9062 3.55050   3
   2   4  12 1.81024 4.11724   4
   3   4  12 -6.8484 4.08703   4
   3   4  12 -0.3679 4.63702   3
  10  -5 -12 8.96981 5.51620   2
  10  -5 -12 -9.1302 4.23614   1
 -10   5  12 -12.821 14.0491   3
   9  -5 -12 5.35414 4.26999   1
   9  -5 -12 -5.1441 4.42677   2
  -9   5  12 4.67315 6.77575   3
   8  -5 -12 7.43398 4.61201   2
   8  -5 -12 -0.9019 4.23049   1
  -8   5  12 6.19348 5.56361   3
   7  -5 -12 10.4451 4.74706   2
   7  -5 -12 19.5230 4.46925   1
  -7   5  12 16.4990 4.97333   3
   6  -5 -12 31.5472 5.45791   2
   6  -5 -12 30.5773 4.31114   1
  -6   5  12 36.2075 5.90453   3
   5  -5 -12 22.1937 4.01184   1
   5  -5 -12 17.2423 4.32148   2
  -5   5  12 15.0351 4.27331   3
   4  -5 -12 -0.2197 3.66929   2
   4  -5 -12 7.71338 3.57927   1
  -4   5  12 8.61899 3.45877   3
   3  -5 -12 -1.6930 3.41393   1
   3  -5 -12 -7.4483 3.40628   2
  -3   5  12 2.64484 3.34738   3
   2  -5 -12 3.30193 3.51664   2
   2  -5 -12 4.76384 4.24839   1
  -2   5  12 4.22916 2.62656   4
  -2   5  12 6.34397 3.44722   3
   1  -5 -12 9.18964 4.91419   1
   1  -5 -12 4.41754 3.24794   2
  -1   5  12 8.53574 3.27580   4
  -1   5  12 2.83996 3.71567   3
   0  -5 -12 16.6316 5.53085   1
   0  -5 -12 2.79385 3.59629   2
   0   5  12 -8.7264 3.45104   4
   0   5  12 6.51909 4.10164   3
  -1  -5 -12 -1.8463 3.27694   2
  -1  -5 -12 1.64023 5.74570   1
   1   5  12 4.14395 4.26050   3
   1   5  12 1.44322 3.57901   4
  -2  -5 -12 3.20253 6.77506   1
   2   5  12 -9.5262 4.94248   3
   2   5  12 1.40572 4.03366   4
  -3  -5 -12 -2.4458 7.83118   1
   3   5  12 -5.7502 5.60285   3
   3   5  12 7.63327 4.66578   4
  10  -6 -12 -6.4301 4.96107   1
  10  -6 -12 -7.5022 5.65164   2
 -10   6  12 -8.5558 9.02534   3
   9  -6 -12 13.9920 10.2560   2
   9  -6 -12 0.77198 4.67834   1
  -9   6  12 1.27101 6.97193   3
   8  -6 -12 -2.7747 4.87874   2
   8  -6 -12 4.19960 4.40394   1
  -8   6  12 0.70840 5.91616   3
   7  -6 -12 9.91377 4.69418   2
   7  -6 -12 21.5038 4.19729   1
  -7   6  12 10.0046 4.81448   3
   6  -6 -12 14.9361 4.55913   2
   6  -6 -12 7.49069 3.80695   1
  -6   6  12 15.2930 5.09218   3
   5  -6 -12 6.97710 3.96023   2
   5  -6 -12 17.4710 4.00538   1
  -5   6  12 10.4309 4.01476   3
   4  -6 -12 0.14339 3.77033   2
   4  -6 -12 -3.0770 3.80078   1
  -4   6  12 -1.1890 3.51875   3
   3  -6 -12 4.18784 4.09129   2
   3  -6 -12 2.08732 4.05740   1
  -3   6  12 2.61806 3.16802   4
  -3   6  12 5.80383 3.90150   3
   2  -6 -12 12.2005 5.09904   1
   2  -6 -12 2.71105 3.74481   2
  -2   6  12 4.05613 3.15737   4
  -2   6  12 8.36201 4.49150   3
   1  -6 -12 -1.0575 3.76903   2
   1  -6 -12 17.6048 5.57031   1
  -1   6  12 3.22158 3.41890   4
  -1   6  12 -2.5322 3.67850   3
   0  -6 -12 5.86590 3.62182   2
   0  -6 -12 3.02885 5.78419   1
   0   6  12 8.25292 4.04909   4
   0   6  12 5.00423 4.82016   3
  -1  -6 -12 1.54244 6.46464   1
  -1  -6 -12 -4.3449 3.76892   2
   1   6  12 -3.3914 4.05063   4
   1   6  12 -0.7418 4.92561   3
  -2  -6 -12 -9.8262 9.40737   1
   2   6  12 2.40622 4.43864   4
   2   6  12 5.74814 6.06769   3
  10  -7 -12 1.44931 5.42535   2
 -10   7  12 -9.7084 8.10854   3
   9  -7 -12 -0.5499 5.40804   2
  -9   7  12 3.49855 6.87722   3
   8  -7 -12 0.78585 4.49510   1
   8  -7 -12 -0.6155 4.69019   2
  -8   7  12 3.07503 5.60864   3
   7  -7 -12 10.0937 4.74305   2
   7  -7 -12 5.21265 3.92976   1
  -7   7  12 -1.0127 5.14880   3
   6  -7 -12 13.1776 4.27226   1
   6  -7 -12 22.8452 5.08556   2
  -6   7  12 12.8994 4.70962   3
   5  -7 -12 12.1089 4.24428   2
   5  -7 -12 4.13412 3.99356   1
  -5   7  12 7.67565 4.82172   3
   4  -7 -12 2.76790 4.02707   1
   4  -7 -12 -4.5710 3.95424   2
  -4   7  12 -2.0351 4.44258   3
   3  -7 -12 -6.0011 4.76221   1
  -3   7  12 -0.4655 3.72970   4
  -3   7  12 2.67586 4.12158   3
   2  -7 -12 -3.3151 3.83814   2
   2  -7 -12 17.5662 5.42061   1
  -2   7  12 0.72570 3.72941   4
  -2   7  12 -1.2127 4.85226   3
   1  -7 -12 -0.6031 6.28236   1
   1  -7 -12 -4.3596 4.09130   2
  -1   7  12 9.51122 3.80648   4
  -1   7  12 12.8235 5.32852   3
   0  -7 -12 -6.7186 3.82210   2
   0  -7 -12 -0.1368 6.71699   1
   0   7  12 -6.2894 5.42380   3
   0   7  12 0.29749 4.09579   4
  -1  -7 -12 -1.5760 7.76928   1
  -1  -7 -12 2.45098 5.94103   2
   1   7  12 5.29605 5.85930   3
   1   7  12 4.66833 4.74592   4
   9  -8 -12 -1.2352 5.47087   2
  -9   8  12 -4.3660 6.90325   3
   8  -8 -12 3.78995 5.11451   2
  -8   8  12 1.28042 6.19010   3
   7  -8 -12 -4.0948 4.57060   2
  -7   8  12 3.82561 7.52093   3
   6  -8 -12 1.72270 4.21060   2
  -6   8  12 -0.0516 5.36690   3
   5  -8 -12 -4.4729 4.76594   1
   5  -8 -12 -8.4374 3.92682   2
  -5   8  12 6.96420 4.70901   3
   4  -8 -12 -0.3000 5.08868   1
   4  -8 -12 -3.8277 3.40278   2
  -4   8  12 4.94252 5.20695   3
   3  -8 -12 -4.7326 5.69530   1
   3  -8 -12 -9.9909 4.15857   2
  -3   8  12 -3.8150 4.01451   4
  -3   8  12 3.37652 5.68056   3
   2  -8 -12 16.0619 4.75871   2
   2  -8 -12 -4.0464 6.32589   1
  -2   8  12 1.39464 5.32192   3
  -2   8  12 -3.6393 4.07216   4
   1  -8 -12 1.48168 7.05678   1
   1  -8 -12 6.48811 4.56743   2
  -1   8  12 1.46135 4.19146   4
  -1   8  12 4.84703 6.14944   3
   8  -9 -12 15.8913 5.40837   2
  -8   9  12 -0.4627 6.85652   3
   7  -9 -12 11.7086 5.12888   2
  -7   9  12 2.97479 5.55087   3
   6  -9 -12 4.86983 5.38847   2
  -6   9  12 -4.1222 6.28945   3
   5  -9 -12 -5.2266 4.52103   2
  -5   9  12 -1.9961 6.45894   3
   4  -9 -12 -6.2875 4.39555   2
  -4   9  12 -1.7205 5.83767   3
   3  -9 -12 -1.8968 4.28966   2
  -3   9  12 10.7077 4.93761   4
  -3   9  12 2.67090 5.62071   3
   2  -9 -12 -13.230 7.44346   1
   2  -9 -12 1.20965 4.66312   2
  -2   9  12 7.65077 7.12159   3
  -2   9  12 -0.3135 4.97298   4
   6 -10 -12 -3.7447 5.14955   2
   5 -10 -12 -1.0852 4.57179   2
   0  -9  13 14.4574 7.79439   2
   0  -9  13 0.04463 4.34347   3
  -1   9 -13 -4.4853 5.82547   1
   1  -9  13 17.0135 7.26353   2
   1  -9  13 -4.6834 4.19727   3
  -2   9 -13 2.06744 7.75643   4
  -2   9 -13 8.52712 5.99108   1
   2  -9  13 -0.9883 4.83329   3
  -3   9 -13 16.3741 8.31308   4
  -3   9 -13 8.45734 5.90436   1
  -3  -8  13 -1.9204 6.92955   2
   2   8 -13 2.38158 4.82663   1
  -2  -8  13 7.59018 4.76710   3
  -2  -8  13 11.1177 6.93461   2
   1   8 -13 -8.7351 4.69326   1
  -1  -8  13 1.99906 4.25469   3
  -1  -8  13 15.5092 6.99065   2
   0   8 -13 -3.7552 4.84831   1
   0  -8  13 4.52653 4.38672   3
   0  -8  13 -2.6071 6.63133   2
  -1   8 -13 -0.8389 4.62903   1
   1  -8  13 -3.2414 3.70280   3
   1  -8  13 5.17738 6.92447   2
  -2   8 -13 3.87887 5.14266   1
  -2   8 -13 4.60029 7.11179   4
   2  -8  13 -3.3362 3.48624   3
  -3   8 -13 4.28602 5.00093   1
  -3   8 -13 2.44640 7.13716   4
   3  -8  13 2.81683 3.52198   3
  -4   8 -13 3.63625 5.39375   1
  -4   8 -13 17.9365 7.63437   4
   4  -8  13 -6.0602 3.72221   3
   4   7 -13 11.7092 5.40826   1
  -4  -7  13 -4.9871 6.81034   2
   3   7 -13 -2.2671 4.93328   1
  -3  -7  13 0.08062 6.26936   2
  -3  -7  13 9.32811 5.16706   3
   2   7 -13 -4.2631 4.12570   1
  -2  -7  13 -2.5619 5.81808   2
  -2  -7  13 -1.1909 4.02000   3
   1   7 -13 -1.0071 4.15377   1
  -1  -7  13 1.85375 6.15152   2
  -1  -7  13 -0.8245 3.61704   3
   0   7 -13 6.67730 4.39319   1
   0  -7  13 1.23006 3.44369   3
   0  -7  13 8.51358 6.06728   2
  -1   7 -13 1.08771 3.90365   1
  -1   7 -13 7.61116 7.22910   4
   1  -7  13 -1.0900 5.84633   2
   1  -7  13 -4.0818 3.15023   3
  -2   7 -13 -5.3722 6.03955   4
  -2   7 -13 -5.5303 4.25441   1
   2  -7  13 0.92014 3.27009   3
  -3   7 -13 3.24133 6.22636   4
  -3   7 -13 -2.0720 4.27882   1
   3  -7  13 4.79863 3.28155   3
  -4   7 -13 -7.6083 6.30345   4
  -4   7 -13 -3.3956 5.07206   1
   4  -7  13 -0.1727 3.37522   3
  -5   7 -13 -6.5980 7.19319   4
  -5   7 -13 18.9227 11.7986   1
   5  -7  13 -3.9315 3.57338   3
   5   6 -13 2.09051 4.30712   1
  -5  -6  13 8.05607 6.84226   2
  -4  -6  13 0.05275 6.37525   2
  -4  -6  13 1.15873 4.61127   3
   3   6 -13 -2.9302 4.33456   1
  -3  -6  13 -2.5381 4.48910   3
  -3  -6  13 16.0812 6.31350   2
   2   6 -13 -2.7309 3.54889   1
  -2  -6  13 -0.1047 3.34510   3
  -2  -6  13 11.0741 5.77626   2
   1   6 -13 -2.3981 3.98054   1
  -1  -6  13 1.88940 2.94345   3
  -1  -6  13 4.36169 5.48992   2
   0   6 -13 1.41125 3.75560   1
   0  -6  13 14.0656 5.74633   2
   0  -6  13 0.93608 3.20827   3
  -1   6 -13 9.80615 6.35670   4
  -1   6 -13 -0.2335 4.00097   1
   1  -6  13 3.18801 2.91956   3
   1  -6  13 -1.5217 7.12073   2
  -2   6 -13 -0.0232 3.77071   1
  -2   6 -13 1.22341 5.29908   4
   2  -6  13 -1.5229 2.66206   3
  -3   6 -13 -0.2925 6.02423   4
  -3   6 -13 3.52307 4.05685   1
   3  -6  13 -0.8909 2.83476   3
  -4   6 -13 -3.4867 6.60263   4
  -4   6 -13 2.36330 4.72513   1
   4  -6  13 0.58517 3.59188   3
  -5   6 -13 -14.597 6.86132   4
   5  -6  13 -0.4532 3.66441   3
   6   5 -13 -1.1177 4.26835   1
  -6  -5  13 1.20230 5.85770   2
   5   5 -13 5.78081 5.88483   1
  -5  -5  13 2.22608 6.04347   2
  -5  -5  13 3.79758 5.21325   3
   4   5 -13 0.47948 4.25510   1
  -4  -5  13 0.61725 3.90354   3
  -4  -5  13 0.46289 5.97651   2
   3   5 -13 1.78628 3.28537   1
  -3  -5  13 -1.5893 3.83596   3
  -3  -5  13 5.95691 5.50272   2
   2   5 -13 -2.0639 3.47583   1
  -2  -5  13 8.34001 5.41636   2
  -2  -5  13 4.28134 3.02810   3
   1   5 -13 3.46478 3.56210   1
  -1  -5  13 7.25052 5.38968   2
  -1  -5  13 1.82651 3.01145   3
   0   5 -13 -2.5524 3.31661   1
   0  -5  13 -2.4039 2.72674   3
   0  -5  13 1.38371 5.00884   2
  -1   5 -13 1.38717 5.03970   4
  -1   5 -13 0.58285 3.31240   1
   1  -5  13 -1.2762 2.71968   3
  -2   5 -13 7.09427 3.63265   1
  -2   5 -13 -1.3912 5.19736   4
   2  -5  13 -2.8395 2.69371   3
  -3   5 -13 4.15467 3.69128   1
  -3   5 -13 -1.3689 5.32318   4
   3  -5  13 3.27892 2.89484   3
  -4   5 -13 -5.3552 5.82049   4
  -4   5 -13 -1.1434 4.25641   1
   4  -5  13 2.54655 3.40247   3
  -5   5 -13 -0.6598 6.49504   4
   5  -5  13 1.03675 3.33583   3
   7   4 -13 0.81327 4.14076   1
  -7  -4  13 -0.5054 5.90752   2
   6   4 -13 6.17715 4.10920   1
  -6  -4  13 -3.1182 5.43715   3
  -6  -4  13 5.40326 5.77983   2
   5   4 -13 5.41098 3.63177   1
  -5  -4  13 4.67547 5.37659   2
  -5  -4  13 8.80815 4.55881   3
   4   4 -13 -0.6295 3.82880   1
  -4  -4  13 2.10248 3.67248   3
  -4  -4  13 3.85863 5.11512   2
   3   4 -13 -1.3373 3.49114   1
  -3  -4  13 3.25483 3.56912   3
  -3  -4  13 3.37397 4.94514   2
   2   4 -13 8.95606 3.57073   1
  -2  -4  13 6.06401 3.08065   3
  -2  -4  13 1.11518 4.63171   2
   1   4 -13 13.0981 3.65160   1
  -1  -4  13 14.6953 4.94865   2
  -1  -4  13 9.71755 3.00696   3
   0   4 -13 2.29577 3.09825   1
   0  -4  13 1.15975 2.81685   3
   0  -4  13 4.19402 4.66833   2
  -1   4 -13 4.03209 3.66941   1
  -1   4 -13 10.4944 4.20857   4
   1  -4  13 1.23352 2.58745   3
   1  -4  13 1.09757 4.77918   2
  -2   4 -13 -0.1348 9.09821   4
  -2   4 -13 4.56800 3.58222   1
   2  -4  13 3.77208 2.68773   3
  -3   4 -13 -5.5167 5.15853   4
  -3   4 -13 1.63900 3.79428   1
   3  -4  13 -1.2484 2.47401   3
  -4   4 -13 6.73404 4.78167   1
  -4   4 -13 9.93869 5.88032   4
   4  -4  13 -3.4936 2.88477   3
  -5   4 -13 8.21739 5.91104   4
  -5   4 -13 2.37062 6.33358   1
   5  -4  13 -3.5340 2.80280   3
   8   3 -13 1.46534 4.87005   1
  -8  -3  13 29.3228 7.14528   2
   7   3 -13 -1.4583 3.97340   1
  -7  -3  13 6.36518 6.22762   3
  -7  -3  13 -5.9836 5.76682   2
   6   3 -13 -2.3168 3.92202   1
  -6  -3  13 -2.1312 5.06521   2
  -6  -3  13 1.77803 4.80096   3
   5   3 -13 12.9012 4.02218   1
  -5  -3  13 0.23419 4.84370   2
  -5  -3  13 14.0513 4.40848   3
   4   3 -13 5.10854 3.62980   1
  -4  -3  13 13.7372 3.82405   3
  -4  -3  13 2.49562 5.18490   2
   3   3 -13 -2.2339 3.46119   1
  -3  -3  13 3.47264 3.25526   3
  -3  -3  13 -0.3321 4.61812   2
   2   3 -13 2.42187 3.60045   1
  -2  -3  13 6.07435 3.03011   3
  -2  -3  13 -4.0720 4.25137   2
   1   3 -13 8.68154 3.58928   1
  -1  -3  13 14.1535 5.50753   2
  -1  -3  13 10.5579 2.99259   3
   0   3 -13 1.63494 2.96387   1
   0  -3  13 0.19777 2.12608   3
  -1   3 -13 7.40649 3.78124   4
  -1   3 -13 8.77692 3.51120   1
   1  -3  13 3.87905 2.71742   3
  -2   3 -13 4.05486 3.15060   1
  -2   3 -13 3.15741 4.73891   4
   2  -3  13 4.64564 2.95424   3
  -3   3 -13 3.87408 3.81867   1
  -3   3 -13 1.40922 4.76360   4
   3  -3  13 -0.3837 2.91975   3
  -4   3 -13 -11.533 4.61202   1
   4  -3  13 3.32729 5.89351   4
   4  -3  13 -7.0981 2.82499   3
  -5   3 -13 3.67014 5.22304   1
   5  -3  13 -4.6365 6.24257   4
   5  -3  13 0.31670 3.12765   3
   8   2 -13 6.17621 4.48034   1
  -8  -2  13 7.98719 7.34183   3
  -8  -2  13 -6.5725 5.35581   2
   7   2 -13 2.96153 4.00926   1
  -7  -2  13 2.17247 5.43861   2
  -7  -2  13 -6.8099 6.05740   3
   6   2 -13 -1.4121 3.11599   1
  -6  -2  13 1.88507 4.91931   2
  -6  -2  13 -1.8109 4.31923   3
   5   2 -13 9.89317 4.10247   1
  -5  -2  13 17.8453 4.23793   3
  -5  -2  13 9.94337 4.48366   2
   4   2 -13 19.1607 4.31906   1
  -4  -2  13 12.4690 4.63867   2
  -4  -2  13 14.5152 3.93917   3
   3   2 -13 2.96802 3.12331   1
  -3  -2  13 10.8278 4.22035   2
  -3  -2  13 11.5622 2.95280   3
   2   2 -13 -0.3866 2.99488   1
  -2  -2  13 -4.3728 4.21740   2
  -2  -2  13 1.85432 2.74556   3
   1   2 -13 5.12807 3.34992   1
  -1  -2  13 2.35892 2.42767   3
  -1  -2  13 7.87342 4.33942   2
   0   2 -13 -0.8684 2.89178   1
   0  -2  13 6.11537 3.82633   2
   0  -2  13 0.44164 2.36080   3
   0  -2  13 3.36382 3.64830   4
  -1   2 -13 9.20588 3.54866   1
  -1   2 -13 8.53316 4.90799   2
   1  -2  13 3.08900 3.78129   4
   1  -2  13 5.89818 2.93754   3
  -2   2 -13 2.43601 3.41105   1
   2  -2  13 -3.6423 2.73488   3
   2  -2  13 9.86452 5.00538   4
  -3   2 -13 0.38457 3.77736   1
   3  -2  13 2.04511 2.61294   3
   3  -2  13 1.72932 5.13276   4
  -4   2 -13 -0.2158 4.88292   1
   4  -2  13 4.97782 5.25246   4
   4  -2  13 3.40465 3.12735   3
  -5   2 -13 12.0852 5.66787   1
   5  -2  13 11.8925 6.50581   4
   5  -2  13 1.45346 4.18516   3
   9   1 -13 1.94071 4.49502   1
  -9  -1  13 -1.7850 7.84183   3
  -9  -1  13 4.05712 5.59375   2
  -8  -1  13 3.74443 5.58065   2
  -8  -1  13 14.9516 7.53286   3
   7   1 -13 -1.0515 3.68747   1
  -7  -1  13 -10.441 5.78871   3
  -7  -1  13 2.95273 5.23144   2
   6   1 -13 8.61510 4.16799   1
  -6  -1  13 12.4390 4.20173   3
  -6  -1  13 15.0915 4.97542   2
   5   1 -13 18.9371 4.70168   1
  -5  -1  13 17.8415 3.83093   3
  -5  -1  13 18.7672 4.85297   2
   4   1 -13 17.5608 4.00766   1
  -4  -1  13 15.3732 3.44492   3
  -4  -1  13 7.27901 4.62865   2
   3   1 -13 8.51322 3.70144   1
  -3  -1  13 2.43641 4.28482   2
  -3  -1  13 9.05019 3.04706   3
   2   1 -13 -1.0493 2.69622   1
  -2  -1  13 6.70924 4.06479   2
  -2  -1  13 -2.6531 2.67450   3
   1   1 -13 1.01093 4.23012   2
   1   1 -13 3.45141 3.29170   1
  -1  -1  13 13.5449 3.99044   2
  -1  -1  13 6.45434 2.63425   3
   0   1 -13 6.26657 3.28417   1
   0   1 -13 7.59683 3.52158   2
   0  -1  13 5.81283 2.89038   4
   0  -1  13 1.98207 2.58565   3
  -1   1 -13 10.3644 3.50132   1
   1  -1  13 3.82665 2.51154   3
   1  -1  13 7.79166 3.65720   4
  -2   1 -13 7.49634 3.98753   1
   2  -1  13 3.56572 2.63985   3
   2  -1  13 1.54404 7.26748   4
  -3   1 -13 -1.0137 4.47831   1
   3  -1  13 -4.5537 4.85458   4
   3  -1  13 -0.9930 2.75441   3
  -4   1 -13 2.63636 8.07430   1
   4  -1  13 -9.2240 3.39738   3
   4  -1  13 -6.7965 5.21251   4
  -5   1 -13 0.48219 5.95268   1
   5  -1  13 -6.7164 4.30449   3
   5  -1  13 4.51014 6.07078   4
   9   0 -13 4.19667 4.51671   1
  -9   0  13 -2.9444 5.59857   2
  -9   0  13 11.1254 8.04826   3
   8   0 -13 5.99982 4.19563   1
  -8   0  13 -0.5890 7.23263   3
  -8   0  13 4.23369 5.00337   2
   7   0 -13 3.35301 3.65796   1
  -7   0  13 4.64256 4.97355   2
  -7   0  13 -4.2382 5.93796   3
   6   0 -13 1.08682 3.93615   1
  -6   0  13 3.14852 4.23679   3
  -6   0  13 12.7324 5.08215   2
   5   0 -13 25.1590 4.48434   1
  -5   0  13 18.3245 5.09459   2
  -5   0  13 20.6068 4.09168   3
   4   0 -13 14.5730 4.02653   1
  -4   0  13 10.2062 3.63518   3
  -4   0  13 22.3460 5.19711   2
   3   0 -13 13.9830 3.65396   1
  -3   0  13 13.7043 4.78004   2
  -3   0  13 11.7689 3.13629   3
   2   0 -13 -0.3415 3.06409   1
   2   0 -13 5.34510 4.09461   2
  -2   0  13 4.69311 2.59119   3
   1   0 -13 -1.2775 2.82453   1
   1   0 -13 -6.2220 3.60003   2
  -1   0  13 1.84301 2.75918   3
   0   0 -13 0.78264 3.06501   1
   0   0 -13 8.91293 3.64187   2
   0   0  13 7.91748 2.74753   3
   0   0  13 6.16996 2.96945   4
  -1   0 -13 4.48065 3.66482   1
   1   0  13 2.02811 4.36193   4
   1   0  13 1.79127 2.80345   3
  -2   0 -13 10.4388 4.21165   1
   2   0  13 1.23522 3.99282   4
   2   0  13 4.12083 2.95766   3
  -3   0 -13 -4.6311 4.82060   1
   3   0  13 1.71784 3.20478   3
   3   0  13 0.13512 4.44911   4
  -4   0 -13 11.6523 5.98290   1
   4   0  13 5.31731 3.50981   3
   4   0  13 -0.7826 4.88404   4
  -5   0 -13 -2.2768 6.71410   1
   5   0  13 1.94700 5.87338   4
   5   0  13 0.82591 4.82294   3
   9  -1 -13 13.1923 5.02618   1
  -9   1  13 2.36299 5.89433   2
  -9   1  13 11.6495 8.16918   3
   8  -1 -13 6.68919 4.18689   1
  -8   1  13 5.81758 5.41796   2
  -8   1  13 3.53340 6.77372   3
   7  -1 -13 -5.0507 3.49901   1
  -7   1  13 2.14291 5.05605   2
  -7   1  13 0.07423 5.31755   3
   6  -1 -13 6.85321 4.17445   1
  -6   1  13 3.75700 4.33542   2
  -6   1  13 1.97575 3.29486   3
   5  -1 -13 29.3253 4.72457   1
  -5   1  13 26.7081 4.17964   3
  -5   1  13 22.8549 5.23857   2
   4  -1 -13 14.9431 4.17500   1
  -4   1  13 19.8868 4.92213   2
  -4   1  13 16.4770 3.79856   3
   3  -1 -13 16.8413 4.03464   1
   3  -1 -13 9.94561 4.58116   2
  -3   1  13 9.16967 2.92393   3
   2  -1 -13 -1.9641 3.65693   2
   2  -1 -13 2.57594 3.27095   1
  -2   1  13 2.84570 2.69119   3
   1  -1 -13 -1.4279 3.66579   2
   1  -1 -13 4.85480 3.41196   1
  -1   1  13 2.28773 2.51048   3
   0  -1 -13 7.14763 3.12934   1
   0  -1 -13 -3.3424 3.53296   2
   0   1  13 7.66969 2.97251   3
   0   1  13 4.88532 2.68845   4
  -1  -1 -13 0.18899 3.69775   1
   1   1  13 -4.0372 3.43372   4
   1   1  13 1.97566 2.54360   3
  -2  -1 -13 4.56993 4.43266   1
   2   1  13 3.09318 3.21980   3
   2   1  13 6.88564 4.12811   4
  -3  -1 -13 -8.8658 5.52934   1
   3   1  13 -0.9943 4.51502   4
   3   1  13 0.66590 3.66141   3
  -4  -1 -13 -2.5331 6.53697   1
   4   1  13 -0.8965 4.13765   3
   4   1  13 -1.7910 4.90021   4
  10  -2 -13 8.07001 7.14766   1
 -10   2  13 4.38862 6.65017   2
 -10   2  13 11.2734 9.65925   3
   9  -2 -13 3.15421 4.40430   1
  -9   2  13 14.6042 8.12246   3
  -9   2  13 12.5111 6.23302   2
   8  -2 -13 0.48711 4.13270   1
  -8   2  13 19.0888 7.26222   3
  -8   2  13 0.22600 4.94378   2
   7  -2 -13 -3.5696 4.43863   1
  -7   2  13 -5.8224 5.02837   2
  -7   2  13 1.12143 5.68474   3
   6  -2 -13 -0.2163 3.99325   1
  -6   2  13 8.29922 4.65704   2
  -6   2  13 10.2290 4.88945   3
   5  -2 -13 21.7147 4.32806   1
   5  -2 -13 28.5549 5.18298   2
  -5   2  13 20.4799 4.21443   3
   4  -2 -13 20.1612 4.69426   2
   4  -2 -13 15.3488 4.03321   1
  -4   2  13 14.6946 3.72985   3
   3  -2 -13 12.8761 4.75819   2
   3  -2 -13 21.5212 4.14095   1
  -3   2  13 7.01781 3.38878   3
   2  -2 -13 -0.5092 3.76845   2
   2  -2 -13 1.71146 3.20717   1
  -2   2  13 2.43730 2.81612   3
   1  -2 -13 2.01306 3.40461   1
   1  -2 -13 -1.7488 4.34363   2
  -1   2  13 2.63170 2.84610   3
   0  -2 -13 5.10270 3.79593   1
   0  -2 -13 15.8893 4.04135   2
   0   2  13 5.44941 2.99548   3
   0   2  13 4.11249 2.77529   4
  -1  -2 -13 3.71597 4.63970   1
   1   2  13 -0.5739 3.22657   3
   1   2  13 -1.8508 3.93915   4
  -2  -2 -13 0.83812 4.90339   1
   2   2  13 5.91167 4.20936   4
   2   2  13 1.24592 3.82293   3
  -3  -2 -13 0.69342 11.6032   1
   3   2  13 1.09799 4.73472   4
   3   2  13 5.81362 4.37310   3
  -4  -2 -13 7.32018 6.95680   1
   4   2  13 1.30100 5.37923   4
   4   2  13 2.82323 4.26479   3
  10  -3 -13 4.58934 4.84932   1
 -10   3  13 24.3580 16.4065   3
 -10   3  13 13.3857 6.16088   2
   9  -3 -13 3.14146 5.56255   2
   9  -3 -13 9.72450 4.68691   1
  -9   3  13 7.35490 5.62094   2
  -9   3  13 19.0087 8.04442   3
   8  -3 -13 9.50547 4.80067   1
   8  -3 -13 9.02269 5.02989   2
  -8   3  13 17.3250 6.88647   3
   7  -3 -13 1.97604 4.82996   2
   7  -3 -13 -7.5712 3.92181   1
  -7   3  13 4.94152 5.50908   3
   6  -3 -13 10.9151 4.88357   2
   6  -3 -13 0.41946 3.91365   1
  -6   3  13 -0.4648 4.67563   3
   5  -3 -13 6.63151 4.57162   2
   5  -3 -13 8.98847 4.16901   1
  -5   3  13 7.09125 3.59701   3
   4  -3 -13 14.8019 4.18710   1
   4  -3 -13 10.9062 4.66194   2
  -4   3  13 14.9318 3.65966   3
   3  -3 -13 16.6282 4.04284   1
   3  -3 -13 8.76620 4.30266   2
  -3   3  13 9.61024 3.33249   3
   2  -3 -13 3.28650 3.39834   1
   2  -3 -13 -1.8615 3.93586   2
  -2   3  13 -4.0066 3.11049   3
   1  -3 -13 1.10126 4.08302   1
   1  -3 -13 3.28246 3.75340   2
  -1   3  13 0.72809 2.96331   3
   0  -3 -13 -2.9712 3.72690   2
   0  -3 -13 -0.0681 4.22029   1
   0   3  13 6.75731 3.27517   4
   0   3  13 4.06382 3.29877   3
  -1  -3 -13 -6.2052 5.09963   1
   1   3  13 0.32177 3.55455   3
   1   3  13 5.58032 3.71574   4
  -2  -3 -13 15.9164 6.06864   1
   2   3  13 5.84178 4.20790   3
   2   3  13 0.42818 4.55559   4
  -3  -3 -13 1.34631 7.39399   1
   3   3  13 8.65221 5.13344   4
   3   3  13 10.8862 4.75505   3
  10  -4 -13 11.2564 6.81225   2
  10  -4 -13 -4.2109 4.58217   1
 -10   4  13 33.0291 10.1368   3
   9  -4 -13 5.78164 5.21357   1
   9  -4 -13 20.2114 6.09986   2
  -9   4  13 3.21367 8.89108   3
   8  -4 -13 1.16056 4.33488   1
   8  -4 -13 9.79426 4.64679   2
  -8   4  13 9.99985 6.35505   3
   7  -4 -13 2.08500 4.32194   1
   7  -4 -13 -5.2892 4.34537   2
  -7   4  13 -4.2946 5.53934   3
   6  -4 -13 -4.4464 4.53717   2
   6  -4 -13 -2.0281 4.11697   1
  -6   4  13 0.46659 4.30744   3
   5  -4 -13 1.19092 4.13702   2
   5  -4 -13 7.55506 4.07457   1
  -5   4  13 12.0174 3.87419   3
   4  -4 -13 13.0010 4.60815   2
   4  -4 -13 17.7311 4.23933   1
  -4   4  13 21.0365 3.94455   3
   3  -4 -13 3.94740 4.09234   2
   3  -4 -13 5.22886 3.80679   1
  -3   4  13 3.16529 3.40980   3
   2  -4 -13 6.87404 4.34029   1
   2  -4 -13 9.69306 3.73447   2
  -2   4  13 1.85345 3.54025   3
   1  -4 -13 3.60306 4.28562   1
   1  -4 -13 2.10066 3.86025   2
  -1   4  13 0.01140 4.24119   4
  -1   4  13 0.59122 3.30812   3
   0  -4 -13 0.61792 3.76360   2
   0  -4 -13 0.27321 5.45035   1
   0   4  13 1.22509 3.63135   3
   0   4  13 -5.3052 3.40470   4
  -1  -4 -13 25.5309 6.38700   1
   1   4  13 5.32177 4.04564   4
   1   4  13 -3.6970 4.20237   3
  -2  -4 -13 -4.8182 13.7661   1
   2   4  13 -1.4780 4.72847   3
   2   4  13 2.72928 4.27061   4
  10  -5 -13 8.38045 6.61451   2
  10  -5 -13 17.9930 5.80139   1
 -10   5  13 23.7282 9.23600   3
   9  -5 -13 -4.9924 5.29947   2
   9  -5 -13 -3.5691 4.99890   1
  -9   5  13 7.92968 9.39497   3
   8  -5 -13 8.27249 5.03312   2
   8  -5 -13 13.1330 4.91572   1
  -8   5  13 17.8484 6.64615   3
   7  -5 -13 1.03242 4.27911   1
   7  -5 -13 4.57870 4.66969   2
  -7   5  13 10.5165 5.26095   3
   6  -5 -13 4.07159 4.14403   1
   6  -5 -13 0.56774 4.42647   2
  -6   5  13 -2.3248 4.75516   3
   5  -5 -13 5.99995 4.10235   1
   5  -5 -13 5.43120 4.67606   2
  -5   5  13 11.7050 4.24744   3
   4  -5 -13 17.1695 4.54822   2
   4  -5 -13 12.6134 4.43283   1
  -4   5  13 17.2632 4.17468   3
   3  -5 -13 -1.3358 4.48413   1
   3  -5 -13 5.03058 4.06079   2
  -3   5  13 -0.7944 3.75807   3
   2  -5 -13 5.40980 4.73196   1
   2  -5 -13 1.34183 4.13366   2
  -2   5  13 0.99012 3.49743   3
   1  -5 -13 4.60130 5.59650   1
   1  -5 -13 -6.0730 3.66114   2
  -1   5  13 1.51616 4.26645   3
   0  -5 -13 9.06291 3.91814   2
   0  -5 -13 19.3746 6.58188   1
   0   5  13 2.42631 4.02686   4
   0   5  13 6.62637 4.61587   3
  -1  -5 -13 4.06637 6.66657   1
   1   5  13 10.9812 4.49668   4
   1   5  13 6.05206 5.00050   3
  -2  -5 -13 3.03957 7.73858   1
   2   5  13 -2.0756 5.22176   3
   2   5  13 -3.3295 4.67736   4
   9  -6 -13 3.25740 5.05423   1
   9  -6 -13 -1.6577 5.25323   2
  -9   6  13 12.9167 8.39188   3
   8  -6 -13 1.26673 4.64334   1
  -8   6  13 7.04631 8.96712   3
   7  -6 -13 3.59716 4.55133   1
   7  -6 -13 4.95718 5.24926   2
  -7   6  13 2.43450 4.68011   3
   6  -6 -13 0.64403 4.35480   2
   6  -6 -13 0.65854 4.19776   1
  -6   6  13 1.57214 5.16485   3
   5  -6 -13 6.12661 4.45337   2
   5  -6 -13 4.05373 4.41008   1
  -5   6  13 0.71612 4.64018   3
   4  -6 -13 23.9516 4.68876   2
   4  -6 -13 11.4587 4.93150   1
  -4   6  13 8.46278 4.25529   3
   3  -6 -13 7.03358 4.99038   1
   3  -6 -13 -6.1038 4.26490   2
  -3   6  13 11.2683 4.37045   3
   2  -6 -13 3.79292 4.53005   2
   2  -6 -13 2.11568 5.61923   1
  -2   6  13 0.80701 4.49922   3
   1  -6 -13 0.88073 4.15384   2
   1  -6 -13 21.0100 6.29163   1
  -1   6  13 4.62947 4.14781   4
  -1   6  13 4.24823 4.61193   3
   0  -6 -13 8.80735 4.25285   2
   0  -6 -13 -4.1175 6.44047   1
   0   6  13 1.02756 4.26691   4
   0   6  13 -1.2994 5.15603   3
  -1  -6 -13 5.95648 9.23470   1
   1   6  13 -5.0203 5.70197   3
   9  -7 -13 18.2759 6.17716   2
  -9   7  13 11.4302 8.49228   3
   8  -7 -13 5.38059 5.11083   2
  -8   7  13 12.2456 7.33516   3
   7  -7 -13 1.42357 5.35354   2
   7  -7 -13 4.52835 4.72945   1
  -7   7  13 2.82915 6.28277   3
   6  -7 -13 13.0105 4.66177   1
   6  -7 -13 -0.5424 4.65406   2
  -6   7  13 2.89549 5.37110   3
   5  -7 -13 3.65909 4.46511   2
   5  -7 -13 5.01095 4.77076   1
  -5   7  13 3.49216 5.11039   3
   4  -7 -13 3.60963 4.71892   2
   4  -7 -13 2.13292 5.35975   1
  -4   7  13 0.83470 4.67668   3
   3  -7 -13 -5.1172 4.12994   2
   3  -7 -13 -9.6025 5.32044   1
  -3   7  13 -1.6464 4.67380   3
   2  -7 -13 1.09127 4.48603   2
   2  -7 -13 18.7297 6.23624   1
  -2   7  13 -4.5240 5.17950   3
   1  -7 -13 -7.4066 7.15654   1
   1  -7 -13 -0.5527 4.60248   2
  -1   7  13 -4.4695 4.71809   4
  -1   7  13 13.3431 5.76822   3
   8  -8 -13 7.00269 5.36872   2
  -8   8  13 10.8126 7.19151   3
   7  -8 -13 -0.8341 4.94429   2
  -7   8  13 1.28313 5.75072   3
   6  -8 -13 3.92521 6.87799   2
  -6   8  13 -1.4620 5.31242   3
   5  -8 -13 -2.5565 4.63139   2
   5  -8 -13 0.31113 8.66731   1
  -5   8  13 1.55060 6.35528   3
   4  -8 -13 3.07991 4.52728   2
   4  -8 -13 -2.5448 5.88108   1
   3  -8 -13 -12.629 6.42217   1
   3  -8 -13 -1.3703 5.17396   2
   2  -8 -13 -0.2746 7.43482   1
   2  -8 -13 -1.6880 4.88064   2
   6  -9 -13 5.31170 4.64455   2
   5  -9 -13 -4.1321 5.06155   2
   0   8 -14 -2.5016 4.77181   1
   0  -8  14 -4.8507 5.24736   3
   0  -8  14 3.93816 7.72775   2
  -1   8 -14 3.41297 5.93174   1
   1  -8  14 3.85038 4.27027   3
   3   7 -14 2.69434 4.63349   1
  -3  -7  14 8.07245 9.81047   2
  -3  -7  14 6.86130 5.38499   3
   2   7 -14 -2.8286 4.71448   1
  -2  -7  14 8.86267 7.60074   2
  -2  -7  14 12.1316 5.03676   3
   1   7 -14 1.48334 4.93843   1
  -1  -7  14 -6.8321 7.12513   2
  -1  -7  14 2.93796 4.03016   3
   0  -7  14 -1.8801 3.80506   3
   0  -7  14 10.1194 7.41106   2
   1  -7  14 6.99390 6.01166   3
  -2   7 -14 5.10034 9.03580   1
  -3   7 -14 9.04304 5.60674   1
   3  -7  14 -0.0533 3.48896   3
   4   6 -14 -9.4082 4.37522   1
  -4  -6  14 7.63465 5.54203   3
   3   6 -14 -2.1764 4.24449   1
  -3  -6  14 1.65728 4.84123   3
  -3  -6  14 7.31768 6.82762   2
  -2  -6  14 11.9856 6.80962   2
  -2  -6  14 2.60419 4.40877   3
   1   6 -14 -2.4989 4.05744   1
  -1  -6  14 -0.1559 5.98803   2
  -1  -6  14 2.49224 3.93419   3
   0   6 -14 1.22809 4.12502   1
   0  -6  14 -14.815 6.52841   2
   0  -6  14 -0.7606 3.56151   3
  -1   6 -14 0.11967 4.30626   1
   1  -6  14 -0.2631 3.11313   3
  -2   6 -14 5.91731 4.57936   1
   2  -6  14 2.22111 6.06494   3
  -3   6 -14 3.59916 6.75686   4
  -3   6 -14 16.4536 8.62547   1
   3  -6  14 1.93495 3.41281   3
  -4   6 -14 -16.387 6.73655   4
  -4   6 -14 8.10852 5.57105   1
   4  -6  14 0.55580 3.42130   3
   5   5 -14 0.19110 4.32325   1
  -5  -5  14 0.26462 5.39155   3
  -5  -5  14 4.20809 6.52408   2
   4   5 -14 -6.2588 4.19915   1
  -4  -5  14 6.94233 6.63212   2
  -4  -5  14 2.75829 4.87468   3
   3   5 -14 -4.8969 4.03649   1
  -3  -5  14 3.58491 4.11412   3
  -3  -5  14 26.7923 6.76159   2
   2   5 -14 1.73120 4.21978   1
  -2  -5  14 10.4480 6.44066   2
  -2  -5  14 7.80410 3.66813   3
   1   5 -14 0.80328 3.77735   1
  -1  -5  14 -11.523 5.64853   2
  -1  -5  14 2.39263 3.57670   3
   0   5 -14 4.65935 3.60662   1
   0  -5  14 -0.0461 3.14611   3
   0  -5  14 -1.5617 5.42186   2
  -1   5 -14 -0.7501 3.97830   1
   1  -5  14 -3.6305 3.01402   3
  -2   5 -14 1.90882 4.30740   1
   2  -5  14 3.00712 3.71353   3
  -3   5 -14 13.3140 6.30862   4
   3  -5  14 1.49596 3.05440   3
  -4   5 -14 -15.317 6.57803   4
  -4   5 -14 3.59672 5.29926   1
   4  -5  14 -3.8779 3.48422   3
   6   4 -14 -3.3098 4.54633   1
  -6  -4  14 8.63252 5.73218   3
  -6  -4  14 4.39265 6.64676   2
   5   4 -14 -5.2350 3.92076   1
  -5  -4  14 3.91819 6.10898   2
  -5  -4  14 3.69524 5.12364   3
   4   4 -14 -1.1211 3.94082   1
  -4  -4  14 4.03471 4.43397   3
  -4  -4  14 -2.5480 5.47393   2
   3   4 -14 4.79387 4.31927   1
  -3  -4  14 4.02015 3.71778   3
  -3  -4  14 -3.5527 5.61805   2
   2   4 -14 2.07323 3.66871   1
  -2  -4  14 7.51082 3.51771   3
  -2  -4  14 6.50971 6.29701   2
   1   4 -14 1.05322 3.38996   1
  -1  -4  14 8.16768 5.63603   2
  -1  -4  14 -0.2954 2.97791   3
   0   4 -14 2.30881 3.69769   1
   0  -4  14 6.73215 6.57233   2
   0  -4  14 3.56894 2.72544   3
  -1   4 -14 0.71544 3.79712   1
   1  -4  14 -1.3403 2.64043   3
  -2   4 -14 5.66308 4.12481   1
   2  -4  14 2.79428 2.86723   3
  -3   4 -14 2.41142 5.90921   4
   3  -4  14 -4.5687 3.12486   3
  -4   4 -14 3.35913 6.24632   4
  -4   4 -14 1.78531 5.86714   1
   4  -4  14 -1.5698 3.38400   3
   7   3 -14 2.53041 4.49940   1
  -7  -3  14 7.55563 6.19176   2
  -7  -3  14 -2.3021 7.69197   3
   6   3 -14 -1.0365 4.74863   1
  -6  -3  14 4.03282 5.50576   3
  -6  -3  14 2.58884 6.59413   2
   5   3 -14 -6.4785 4.24059   1
  -5  -3  14 10.5523 4.92798   3
  -5  -3  14 4.48057 5.42755   2
   4   3 -14 -0.5387 3.74035   1
  -4  -3  14 -8.4920 5.38195   2
  -4  -3  14 5.11891 4.10549   3
   3   3 -14 7.97597 4.25562   1
  -3  -3  14 8.58234 3.31652   3
  -3  -3  14 10.0102 5.37791   2
   2   3 -14 4.68446 3.65823   1
  -2  -3  14 4.63343 5.03610   2
  -2  -3  14 6.46735 3.72214   3
   1   3 -14 6.22210 3.59658   1
  -1  -3  14 10.6843 5.61935   2
  -1  -3  14 5.30315 2.78433   3
   0   3 -14 1.96874 3.81815   1
   0  -3  14 -1.5669 5.00507   2
   0  -3  14 0.98802 2.71550   3
  -1   3 -14 4.77389 4.02827   1
   1  -3  14 5.59499 2.85837   3
  -2   3 -14 -1.4541 3.65893   1
   2  -3  14 1.04270 5.51293   4
   2  -3  14 -5.7760 2.49551   3
   3  -3  14 -5.7857 5.90562   4
  -4   3 -14 -8.8851 5.55544   1
   4  -3  14 6.49370 3.44863   3
   4  -3  14 0.00296 6.72618   4
   7   2 -14 1.70675 4.38289   1
  -7  -2  14 9.72935 7.40935   3
  -7  -2  14 2.39315 6.10067   2
   6   2 -14 2.41668 4.49903   1
  -6  -2  14 3.57216 5.06830   3
  -6  -2  14 2.14694 5.48415   2
   5   2 -14 -0.5473 3.82645   1
  -5  -2  14 0.23672 4.28197   3
  -5  -2  14 6.32514 5.76410   2
   4   2 -14 5.15769 3.74486   1
  -4  -2  14 1.85699 3.82381   3
  -4  -2  14 3.07220 5.28958   2
   3   2 -14 3.86062 3.71956   1
  -3  -2  14 1.10194 5.01515   2
  -3  -2  14 7.64190 3.27316   3
   2   2 -14 4.38362 3.79153   1
  -2  -2  14 6.14079 5.46039   2
  -2  -2  14 5.36652 3.70414   3
   1   2 -14 4.45162 3.62724   1
  -1  -2  14 6.94606 2.93190   3
  -1  -2  14 2.33137 5.04574   2
   0   2 -14 0.29138 3.55430   1
   0   2 -14 0.85239 4.80420   2
   0  -2  14 -3.5994 2.75415   3
  -1   2 -14 -1.0817 3.72328   1
   1  -2  14 1.67179 2.74515   3
  -2   2 -14 3.17307 4.02881   1
   2  -2  14 -1.7005 4.80240   4
   2  -2  14 0.62414 2.73386   3
  -3   2 -14 6.68178 8.28949   1
   3  -2  14 -4.8606 5.31504   4
  -4   2 -14 -1.4910 5.59441   1
   4  -2  14 -14.882 5.79126   4
   4  -2  14 -6.4945 3.36679   3
   8   1 -14 2.33313 4.56157   1
  -8  -1  14 15.3142 8.85818   3
  -8  -1  14 8.46617 5.86220   2
  -7  -1  14 -2.2321 6.57342   2
  -7  -1  14 8.80190 6.88896   3
   6   1 -14 -1.9635 4.68318   1
  -6  -1  14 8.14038 4.84970   3
  -6  -1  14 -8.1206 4.78988   2
  -5  -1  14 6.36158 3.95103   3
  -5  -1  14 3.16971 5.31346   2
   4   1 -14 2.83623 4.18204   1
  -4  -1  14 -2.6476 3.28995   3
  -4  -1  14 -8.3130 4.92740   2
   3   1 -14 12.2495 3.96796   1
  -3  -1  14 8.34036 3.31078   3
  -3  -1  14 8.93304 5.03440   2
   2   1 -14 7.62392 3.73253   1
  -2  -1  14 10.5049 3.48670   3
  -2  -1  14 -0.2327 4.92989   2
   1   1 -14 10.3849 5.21482   2
   1   1 -14 3.85531 3.75594   1
  -1  -1  14 6.83403 3.43509   3
   0   1 -14 -2.9819 5.14036   2
   0   1 -14 3.58486 3.53191   1
   0  -1  14 3.20293 2.93243   3
  -1   1 -14 4.65020 3.50321   1
   1  -1  14 0.49387 2.85310   3
  -2   1 -14 5.65145 4.71355   1
   2  -1  14 -3.9561 4.37329   4
   2  -1  14 -2.6329 2.81561   3
  -3   1 -14 -1.7809 5.15294   1
   3  -1  14 -2.6200 4.96245   4
  -4   1 -14 0.04738 6.18658   1
   4  -1  14 5.83641 5.81198   4
   4  -1  14 -0.5955 3.40853   3
   8   0 -14 7.42340 4.87520   1
  -8   0  14 2.59333 8.07618   3
  -8   0  14 7.09193 6.27853   2
   7   0 -14 -1.9454 5.18251   1
  -7   0  14 9.67975 6.82965   3
  -7   0  14 13.5933 5.76867   2
   6   0 -14 8.17966 5.09491   1
  -6   0  14 6.19080 5.92775   2
  -6   0  14 8.98662 4.96468   3
   5   0 -14 -4.7493 4.20636   1
  -5   0  14 3.44148 3.96525   3
  -5   0  14 4.82156 5.10211   2
   4   0 -14 -2.1975 3.76653   1
  -4   0  14 -2.2974 3.57810   3
  -4   0  14 -4.5391 4.65431   2
   3   0 -14 -4.7025 3.46181   1
   3   0 -14 5.53342 4.94583   2
  -3   0  14 3.09560 3.32172   3
  -3   0  14 11.7515 5.23583   2
   2   0 -14 11.8529 4.18300   1
   2   0 -14 17.0365 4.89904   2
  -2   0  14 8.15038 3.15078   3
   1   0 -14 7.53860 3.75196   1
   1   0 -14 5.19436 4.74228   2
  -1   0  14 4.80195 3.31212   3
   0   0 -14 6.03998 3.73484   1
   0   0 -14 0.25971 4.44737   2
   0   0  14 2.83665 3.00632   3
  -1   0 -14 -1.3401 3.67332   1
   1   0  14 5.34137 3.02646   3
  -2   0 -14 -2.4168 5.20376   1
   2   0  14 -2.5803 4.52069   4
   2   0  14 -6.1602 3.08975   3
  -3   0 -14 -9.6604 5.33038   1
   3   0  14 -2.2195 5.22443   4
  -4   0 -14 4.07588 6.20737   1
   4   0  14 3.62033 4.48410   3
   4   0  14 -1.7963 6.13141   4
  -9   1  14 9.44221 9.75770   3
  -9   1  14 32.6740 7.23845   2
   8  -1 -14 -2.7488 4.55373   1
  -8   1  14 7.49143 5.46684   2
  -8   1  14 5.08121 8.78632   3
   7  -1 -14 6.51330 5.24504   1
  -7   1  14 8.50792 5.46237   2
  -7   1  14 12.1815 7.31680   3
   6  -1 -14 1.07276 4.26033   1
  -6   1  14 12.1310 4.24381   3
  -6   1  14 5.65087 5.42116   2
   5  -1 -14 3.04701 4.54214   1
  -5   1  14 3.11295 3.55064   3
  -5   1  14 9.96572 4.89896   2
   4  -1 -14 12.8722 4.93544   2
   4  -1 -14 -2.8444 3.90338   1
  -4   1  14 -0.0052 3.42026   3
   3  -1 -14 9.32760 4.23368   1
   3  -1 -14 7.90004 4.77882   2
  -3   1  14 3.00177 3.12818   3
   2  -1 -14 4.82985 3.89205   1
   2  -1 -14 2.47141 4.66865   2
  -2   1  14 1.80842 2.75410   3
   1  -1 -14 3.97185 4.16454   1
   1  -1 -14 3.86064 4.40355   2
  -1   1  14 7.57201 2.98207   3
   0  -1 -14 -7.9679 4.39799   2
   0  -1 -14 -3.1217 4.02005   1
   0   1  14 -0.4751 3.31084   3
  -1  -1 -14 4.21292 4.85030   1
   1   1  14 0.11731 3.51706   3
   2   1  14 1.16703 4.88142   4
   2   1  14 5.70499 3.50023   3
  -3  -1 -14 -3.2162 6.63169   1
   3   1  14 7.18077 5.10544   4
   3   1  14 8.68083 4.99810   3
  -9   2  14 13.4414 14.7844   3
  -9   2  14 3.23914 6.26722   2
   8  -2 -14 -2.8236 5.36011   1
  -8   2  14 -2.0900 6.48465   2
  -8   2  14 21.8096 8.49034   3
   7  -2 -14 2.17284 5.38298   1
   7  -2 -14 16.2693 6.16430   2
  -7   2  14 11.9845 5.32914   2
  -7   2  14 26.0412 7.19262   3
   6  -2 -14 15.7543 5.33610   1
   6  -2 -14 20.0067 5.46407   2
  -6   2  14 16.4854 5.79962   3
   5  -2 -14 8.77648 5.14689   2
   5  -2 -14 11.9152 4.55949   1
  -5   2  14 1.48782 3.86371   3
   4  -2 -14 5.70829 4.00781   1
   4  -2 -14 1.30399 4.36158   2
  -4   2  14 0.68043 3.25613   3
   3  -2 -14 7.38122 4.57703   2
   3  -2 -14 -4.8726 4.23589   1
  -3   2  14 4.01894 3.30259   3
   2  -2 -14 6.07954 4.69927   2
   2  -2 -14 8.51951 4.15923   1
  -2   2  14 1.55494 3.10939   3
   1  -2 -14 3.04090 4.13896   1
   1  -2 -14 8.55578 4.47511   2
  -1   2  14 1.66881 3.34402   3
   0  -2 -14 4.60588 4.35239   1
   0   2  14 7.17593 3.50766   3
  -1  -2 -14 -7.0236 5.80439   1
   1   2  14 3.44422 3.60650   3
  -2  -2 -14 -2.1802 6.31751   1
   2   2  14 -5.5159 4.82015   4
   2   2  14 2.79278 4.37276   3
  -3  -2 -14 -3.7663 7.44561   1
   3   2  14 -6.5018 4.39146   3
   3   2  14 -2.0123 5.15842   4
   9  -3 -14 12.0322 6.17812   2
   9  -3 -14 -3.9547 5.56671   1
  -9   3  14 0.26349 9.56272   3
   8  -3 -14 6.11460 6.92689   2
   8  -3 -14 -8.5614 5.38088   1
  -8   3  14 10.0752 8.66303   3
   7  -3 -14 18.4196 5.66270   2
   7  -3 -14 10.7093 5.63746   1
  -7   3  14 19.8780 7.17728   3
   6  -3 -14 12.0375 5.27974   2
   6  -3 -14 15.0982 4.54920   1
  -6   3  14 10.8363 6.12418   3
   5  -3 -14 3.89773 4.43365   1
   5  -3 -14 -0.9994 4.42332   2
  -5   3  14 -0.9048 3.92790   3
   4  -3 -14 -8.7816 4.49347   2
   4  -3 -14 3.13818 4.60473   1
  -4   3  14 3.26807 3.61914   3
   3  -3 -14 8.37546 3.92129   1
   3  -3 -14 1.60984 4.95775   2
  -3   3  14 0.18137 3.33128   3
   2  -3 -14 10.8933 4.65413   1
   2  -3 -14 9.45839 4.81102   2
  -2   3  14 2.17458 3.22514   3
   1  -3 -14 14.0307 4.72510   2
   1  -3 -14 9.10441 5.06488   1
  -1   3  14 1.11338 3.41717   3
   0  -3 -14 -4.3434 5.39094   1
   0   3  14 2.40684 3.76937   3
  -1  -3 -14 -10.668 6.96414   1
   1   3  14 2.65073 4.33566   3
  -2  -3 -14 1.15879 6.70981   1
   2   3  14 -2.8620 5.10150   4
   9  -4 -14 5.75549 5.95952   2
  -9   4  14 0.21634 8.14732   3
   8  -4 -14 1.26156 5.57923   2
   8  -4 -14 4.98875 5.78191   1
  -8   4  14 -6.8827 9.72352   3
   7  -4 -14 7.24434 5.56731   2
   7  -4 -14 15.3746 5.32672   1
  -7   4  14 16.8275 7.33140   3
   6  -4 -14 16.0129 5.30701   2
   6  -4 -14 20.7237 5.00598   1
  -6   4  14 7.08545 5.88191   3
   5  -4 -14 12.6621 5.15797   2
   5  -4 -14 12.8263 4.74328   1
  -5   4  14 12.0505 4.93608   3
   4  -4 -14 2.63409 4.92122   2
   4  -4 -14 5.71018 4.57315   1
  -4   4  14 2.24573 3.79133   3
   3  -4 -14 13.2075 4.70144   1
   3  -4 -14 7.59777 5.02722   2
  -3   4  14 3.88906 3.59968   3
   2  -4 -14 7.96799 4.84914   1
   2  -4 -14 3.41168 4.49156   2
  -2   4  14 5.54306 3.63631   3
   1  -4 -14 1.59173 5.38782   1
   1  -4 -14 0.99712 4.22774   2
  -1   4  14 1.42793 4.25321   3
   0  -4 -14 -6.5169 5.99472   1
   0   4  14 -6.7010 4.45624   3
  -1  -4 -14 15.7997 6.89014   1
   1   4  14 -1.7324 5.27810   3
   9  -5 -14 -8.7124 6.16991   1
   9  -5 -14 -1.6357 5.91342   2
  -9   5  14 -19.927 8.19202   3
   8  -5 -14 1.58983 5.35033   1
   8  -5 -14 9.42115 5.64620   2
  -8   5  14 1.83272 6.88981   3
   7  -5 -14 5.82819 5.04408   1
   7  -5 -14 -0.3318 5.23995   2
  -7   5  14 12.2785 8.19330   3
   6  -5 -14 1.29594 5.33806   2
   6  -5 -14 8.42311 4.79496   1
  -6   5  14 11.3839 6.55869   3
   5  -5 -14 3.60512 4.96456   2
   5  -5 -14 15.7631 4.87854   1
  -5   5  14 -5.6461 4.76474   3
   4  -5 -14 1.36713 4.82346   2
   4  -5 -14 6.26391 4.78144   1
  -4   5  14 1.00941 3.49362   3
   3  -5 -14 0.44248 4.95224   1
   3  -5 -14 7.20302 4.92687   2
  -3   5  14 3.31860 4.38670   3
   2  -5 -14 -2.1427 5.46646   1
   2  -5 -14 0.01548 4.49255   2
  -2   5  14 1.61220 4.52325   3
   1  -5 -14 -3.9838 4.57562   2
   1  -5 -14 -8.3583 5.70759   1
  -1   5  14 5.63476 4.85517   3
   0  -5 -14 24.8496 9.69263   1
   8  -6 -14 -6.6043 5.00058   2
   8  -6 -14 7.31935 5.54102   1
  -8   6  14 14.9127 8.09097   3
   7  -6 -14 1.96452 4.73897   1
   7  -6 -14 -2.0089 6.12690   2
  -7   6  14 9.28207 6.28021   3
   6  -6 -14 18.4405 5.27948   1
   6  -6 -14 7.97364 4.95715   2
  -6   6  14 -0.6627 5.82974   3
   5  -6 -14 10.5389 5.30069   1
   5  -6 -14 9.28849 5.00340   2
  -5   6  14 -5.0491 10.0552   3
   4  -6 -14 2.09481 5.43316   1
   4  -6 -14 7.61805 5.29335   2
   3  -6 -14 10.1315 4.76797   2
   3  -6 -14 -1.3640 5.57979   1
   2  -6 -14 -2.3854 4.62091   2
   2  -6 -14 -5.4742 6.79297   1
   1  -6 -14 14.8404 5.22089   2
   1  -6 -14 35.5682 7.55252   1
  -1   6  14 -1.7357 7.91833   3
   7  -7 -14 12.8726 6.64959   1
   7  -7 -14 6.86730 6.08387   2
  -7   7  14 2.14623 6.31439   3
   6  -7 -14 9.26918 5.45605   1
   6  -7 -14 -2.2064 5.47688   2
  -6   7  14 1.97817 5.74896   3
   5  -7 -14 9.15549 5.74084   1
   5  -7 -14 8.18572 5.08793   2
  -5   7  14 0.20467 5.77361   3
   4  -7 -14 12.2658 5.56346   2
   4  -7 -14 1.00776 6.31229   1
  -4   7  14 -0.7235 5.40468   3
   3  -7 -14 3.94943 5.46425   2
   3  -7 -14 -7.3173 6.26619   1
  -3   7  14 -7.5531 5.84064   3
   2   6 -15 4.54454 4.78906   1
  -2  -6  15 -0.4378 7.54676   2
  -2  -6  15 6.94488 4.97834   3
   1   6 -15 -3.3798 4.62194   1
  -1  -6  15 -11.487 6.95304   2
   0   6 -15 1.99848 4.92321   1
   0  -6  15 5.79319 3.83323   3
  -1   6 -15 -2.8312 4.89634   1
   1  -6  15 -7.6351 3.57647   3
   4   5 -15 -3.4131 5.32987   1
  -4  -5  15 -22.386 12.4102   2
  -4  -5  15 3.96619 5.47699   3
   3   5 -15 5.47917 5.10284   1
  -3  -5  15 -2.9197 7.18399   2
  -3  -5  15 8.22005 4.99554   3
   2   5 -15 2.63217 4.80331   1
  -2  -5  15 1.46341 4.52075   3
  -2  -5  15 -3.9358 6.82846   2
   1   5 -15 -1.1040 4.25772   1
  -1  -5  15 3.34285 3.76852   3
  -1  -5  15 -8.7691 6.62568   2
   0   5 -15 9.09049 4.68113   1
   0  -5  15 5.50323 6.86377   3
  -1   5 -15 1.13870 4.38483   1
   1  -5  15 -0.3060 3.33008   3
  -2   5 -15 -0.0437 5.06273   1
   2  -5  15 -5.1092 3.59107   3
   5   4 -15 -5.3026 4.85201   1
  -5  -4  15 6.35782 6.97813   2
  -5  -4  15 2.48171 5.35571   3
   4   4 -15 -3.8616 5.04786   1
  -4  -4  15 1.89951 5.04152   3
  -4  -4  15 7.86783 7.06683   2
   3   4 -15 2.41393 4.99927   1
  -3  -4  15 9.89604 4.55993   3
  -3  -4  15 -5.4078 6.31004   2
   2   4 -15 0.87530 4.58644   1
  -2  -4  15 0.49884 4.20106   3
  -2  -4  15 5.12967 6.72855   2
  -1  -4  15 -12.035 6.14493   2
  -1  -4  15 3.23005 3.26428   3
   0   4 -15 0.06965 6.39041   1
   0  -4  15 0.68739 5.18124   3
  -1   4 -15 5.20545 4.19687   1
   1  -4  15 2.23209 2.94614   3
  -2   4 -15 0.66539 4.34539   1
   2  -4  15 -5.1344 3.12863   3
  -3   4 -15 5.73496 5.30542   1
   3  -4  15 -5.3206 3.67310   3
   6   3 -15 0.05776 6.08820   1
  -6  -3  15 -4.9652 5.74422   3
  -6  -3  15 2.97079 6.44593   2
   5   3 -15 -3.5881 4.82542   1
  -5  -3  15 4.96223 5.16746   3
  -5  -3  15 1.05561 6.29810   2
   4   3 -15 -2.3747 4.87040   1
  -4  -3  15 3.15489 4.55505   3
  -4  -3  15 7.70485 6.77223   2
  -3  -3  15 13.3566 4.09129   3
  -3  -3  15 -3.3873 5.74568   2
   2   3 -15 -6.2036 3.70781   1
  -2  -3  15 -6.1494 3.86841   3
  -2  -3  15 0.07063 6.48864   2
   1   3 -15 3.06430 4.07152   1
  -1  -3  15 4.79467 3.28496   3
  -1  -3  15 4.49057 5.77797   2
   0   3 -15 -2.0885 5.40439   1
   0  -3  15 -2.0750 3.52637   3
  -1   3 -15 -1.2114 4.90264   1
   1  -3  15 3.86587 3.23404   3
  -2   3 -15 3.93065 4.94998   1
   2  -3  15 1.32612 3.05875   3
  -3   3 -15 -4.4995 4.94024   1
   3  -3  15 -0.8653 3.56586   3
   6   2 -15 -4.4376 5.55196   1
  -6  -2  15 6.34836 7.48994   2
  -6  -2  15 10.4884 5.77680   3
   5   2 -15 -1.3363 4.96698   1
  -5  -2  15 7.47740 4.69964   3
  -5  -2  15 -0.1300 6.09883   2
   4   2 -15 4.44437 5.62285   1
  -4  -2  15 -0.3706 4.08471   3
  -4  -2  15 22.5391 7.00839   2
   3   2 -15 3.76272 4.60152   1
  -3  -2  15 5.84357 3.92632   3
  -3  -2  15 0.55660 6.20427   2
   2   2 -15 4.51141 4.02415   1
  -2  -2  15 -3.0463 3.46785   3
  -2  -2  15 -3.2603 5.76005   2
   1   2 -15 8.64170 4.22389   1
   1   2 -15 3.51324 5.88076   2
  -1  -2  15 -1.0578 3.20420   3
   0   2 -15 9.40834 4.27414   1
   0  -2  15 0.86041 2.90158   3
  -1   2 -15 3.65461 4.69715   1
   1  -2  15 -1.2068 3.63109   3
  -2   2 -15 4.39870 4.67384   1
   2  -2  15 -2.3305 3.41735   3
  -3   2 -15 0.77283 5.92259   1
   3  -2  15 0.90796 3.42398   3
   7   1 -15 -10.059 5.59669   1
  -7  -1  15 6.87820 8.83216   3
  -7  -1  15 10.9651 7.07814   2
   6   1 -15 -5.1793 5.36509   1
  -6  -1  15 0.09855 5.10841   3
  -6  -1  15 5.71222 6.40628   2
   5   1 -15 -6.4073 5.55719   1
  -5  -1  15 -1.0194 6.21425   2
  -5  -1  15 7.91164 4.75024   3
   4   1 -15 10.1610 4.93447   1
  -4  -1  15 5.84597 5.81884   2
  -4  -1  15 3.51007 4.04491   3
   3   1 -15 -9.5903 3.94701   1
  -3  -1  15 -5.5403 5.41962   2
  -3  -1  15 -0.5473 3.38648   3
   2   1 -15 8.61689 5.69950   2
   2   1 -15 0.94568 3.93565   1
  -2  -1  15 3.54745 3.29237   3
   1   1 -15 -7.0865 5.09402   2
   1   1 -15 5.17561 4.03395   1
  -1  -1  15 -0.7927 3.40646   3
   0   1 -15 2.93410 4.20735   1
   0  -1  15 5.61296 3.31723   3
  -1   1 -15 -0.0808 5.39174   1
   1  -1  15 1.89748 4.00054   3
  -2   1 -15 5.40773 5.25634   1
   2  -1  15 -1.9454 3.44203   3
   7   0 -15 5.25926 6.40497   1
  -7   0  15 7.95329 6.78348   2
  -7   0  15 -17.510 7.95902   3
   6   0 -15 -5.8009 8.47845   1
  -6   0  15 3.97595 6.11976   2
  -6   0  15 -1.1881 4.99600   3
   5   0 -15 -0.3180 5.33594   1
  -5   0  15 7.17451 4.58144   3
  -5   0  15 1.09584 5.64521   2
   4   0 -15 14.4376 5.13762   1
  -4   0  15 8.43623 4.22378   3
  -4   0  15 13.4878 5.70631   2
   3   0 -15 5.14956 4.32962   1
   3   0 -15 0.10033 5.40785   2
  -3   0  15 3.22876 3.56709   3
   2   0 -15 -3.5074 4.47177   1
   2   0 -15 -6.9399 5.06159   2
  -2   0  15 5.23655 3.83035   3
   1   0 -15 7.87513 4.81253   1
   1   0 -15 0.50987 5.08554   2
  -1   0  15 0.70286 3.33135   3
   0   0 -15 3.39607 4.72691   1
   0   0  15 -4.2458 3.38298   3
  -1   0 -15 6.77864 5.42159   1
   1   0  15 9.12944 3.71783   3
  -2   0 -15 -3.9460 6.09132   1
   2   0  15 4.46240 3.62152   3
  -8   1  15 9.75315 6.88801   2
  -7   1  15 -3.8280 6.69801   2
  -7   1  15 -6.1728 10.7790   3
   6  -1 -15 0.72356 5.86970   1
  -6   1  15 3.33131 6.12978   2
  -6   1  15 3.05536 4.92092   3
   5  -1 -15 9.01074 6.11635   2
   5  -1 -15 4.23975 5.05395   1
  -5   1  15 4.21855 4.18348   3
   4  -1 -15 19.8988 5.93748   2
   4  -1 -15 17.1728 4.96365   1
  -4   1  15 9.53136 4.27392   3
   3  -1 -15 6.17841 4.74516   1
   3  -1 -15 7.66630 5.39577   2
  -3   1  15 5.42072 3.81361   3
   2  -1 -15 1.48247 4.65096   1
   2  -1 -15 -1.5935 5.09285   2
  -2   1  15 1.81024 3.37672   3
   1  -1 -15 -6.2306 4.97887   2
   1  -1 -15 7.26059 4.60999   1
  -1   1  15 4.00396 3.81215   3
   0  -1 -15 -2.8132 4.94802   1
  -1  -1 -15 3.86323 5.37911   1
   1   1  15 -1.3518 3.90583   3
  -2  -1 -15 2.59718 6.20931   1
   2   1  15 6.60844 4.42557   3
   8  -2 -15 -3.3882 6.22210   2
  -8   2  15 13.0074 9.66136   3
  -8   2  15 8.93963 5.89129   2
   7  -2 -15 -4.8978 6.19572   1
   7  -2 -15 13.2100 7.36645   2
  -7   2  15 11.3858 9.32344   3
   6  -2 -15 0.48962 6.19187   2
   6  -2 -15 -2.5524 5.88551   1
  -6   2  15 2.71944 5.35322   3
   5  -2 -15 6.24850 4.78920   1
   5  -2 -15 9.78815 6.04743   2
  -5   2  15 3.30771 4.08501   3
   4  -2 -15 15.9003 5.01496   1
   4  -2 -15 3.94284 5.40369   2
  -4   2  15 7.05610 4.38551   3
   3  -2 -15 -0.0398 4.69881   1
   3  -2 -15 -6.0132 4.79512   2
  -3   2  15 2.93731 3.75583   3
   2  -2 -15 19.3736 5.65311   2
   2  -2 -15 -2.2863 4.85616   1
  -2   2  15 -0.2949 3.52773   3
   1  -2 -15 -6.7219 4.62541   2
   1  -2 -15 -0.4055 5.24019   1
  -1   2  15 3.82057 5.60263   3
   0  -2 -15 -3.9074 11.8308   1
   0   2  15 7.32342 4.61905   3
  -1  -2 -15 13.7287 6.81511   1
   1   2  15 9.66276 4.31685   3
   8  -3 -15 7.29636 8.32117   1
   8  -3 -15 15.5887 6.54574   2
  -8   3  15 20.6263 10.1420   3
   7  -3 -15 2.68585 6.49791   2
   7  -3 -15 1.47648 6.39088   1
  -7   3  15 0.11718 7.30726   3
   6  -3 -15 -10.003 5.06676   1
   6  -3 -15 -9.9103 5.48038   2
  -6   3  15 -0.8836 7.52404   3
   5  -3 -15 8.41027 5.09601   1
   5  -3 -15 2.90653 6.03346   2
   4  -3 -15 2.17852 5.06549   1
   4  -3 -15 5.41569 5.62376   2
  -4   3  15 1.69710 5.51693   3
   3  -3 -15 6.38672 4.81715   1
   3  -3 -15 -0.0768 5.51119   2
  -3   3  15 -1.2473 4.23866   3
   2  -3 -15 -7.9162 5.27321   2
   2  -3 -15 -1.2834 4.74528   1
   1  -3 -15 -9.2372 5.28604   2
   1  -3 -15 9.62904 5.87918   1
  -1   3  15 1.62891 4.91502   3
   0  -3 -15 -8.8514 6.56814   1
   0   3  15 8.64170 4.53333   3
   8  -4 -15 -3.2635 5.69120   2
   7  -4 -15 -14.019 5.63582   1
   7  -4 -15 -4.8832 5.45707   2
  -7   4  15 -0.3607 7.71448   3
   6  -4 -15 4.49780 5.85121   1
   6  -4 -15 -3.7135 5.21098   2
  -6   4  15 -4.7784 6.37193   3
   5  -4 -15 0.27371 5.27153   1
   5  -4 -15 -0.9092 5.88590   2
  -5   4  15 13.3003 5.31791   3
   4  -4 -15 5.53178 5.62314   2
   4  -4 -15 11.4972 5.29794   1
  -4   4  15 3.36341 4.37750   3
   3  -4 -15 11.0519 5.49903   1
   3  -4 -15 1.97333 5.59053   2
  -3   4  15 7.01830 4.78590   3
   2  -4 -15 1.51466 5.92356   1
  -2   4  15 -0.9687 4.28033   3
  -1   4  15 6.75746 4.77736   3
   7  -5 -15 0.97272 5.92658   1
   7  -5 -15 -0.2878 5.81649   2
  -7   5  15 8.87395 8.08815   3
   6  -5 -15 -8.7199 5.46683   1
  -6   5  15 -4.2412 6.54118   3
   5  -5 -15 2.63149 5.96754   2
   5  -5 -15 1.61554 5.43168   1
  -5   5  15 0.33940 5.59446   3
   4  -5 -15 -6.6090 5.38984   2
   4  -5 -15 10.8961 5.60197   1
  -4   5  15 3.57302 4.85755   3
   3  -5 -15 9.71919 5.59891   2
   3  -5 -15 3.34021 6.41652   1
  -3   5  15 4.36506 4.91766   3
   2  -5 -15 0.76434 5.12431   2
   2  -5 -15 3.63137 6.65836   1
  -2   5  15 7.44993 5.34659   3
   6  -6 -15 1.34515 5.85539   1
   6  -6 -15 10.1816 6.29425   2
  -6   6  15 -4.8615 7.21205   3
   5  -6 -15 -15.901 10.4965   2
   5  -6 -15 -1.8555 5.76791   1
  -5   6  15 -0.5255 5.68673   3
   4  -6 -15 16.2602 6.66088   1
   4  -6 -15 7.14855 5.93212   2
  -4   6  15 0.06008 5.63104   3
   3  -6 -15 2.87969 5.79677   2
   2   4 -16 -11.297 4.80322   1
  -2  -4  16 0.20651 4.87929   3
  -2  -4  16 -1.0738 7.53677   2
   1   4 -16 3.28225 4.82042   1
  -1  -4  16 4.71266 3.97090   3
   0   4 -16 -3.1635 4.97614   1
   0  -4  16 0.36939 3.58440   3
   4   3 -16 -3.0616 5.97192   1
  -4  -3  16 1.29657 5.16516   3
  -4  -3  16 -3.4571 7.24668   2
   3   3 -16 1.61273 5.29143   1
  -3  -3  16 3.83933 4.40039   3
  -3  -3  16 6.25771 7.57338   2
   2   3 -16 7.57174 5.16951   1
  -2  -3  16 2.15802 3.97932   3
  -2  -3  16 11.5608 7.00538   2
   1   3 -16 3.36945 5.15032   1
  -1  -3  16 -1.1260 3.93248   3
   0   3 -16 5.68563 4.79516   1
   0  -3  16 2.82823 3.80851   3
   1  -3  16 -0.9978 3.72646   3
   5   2 -16 -0.3627 6.00058   1
  -5  -2  16 6.71531 5.31127   3
  -5  -2  16 -0.3208 14.3498   2
   4   2 -16 -1.4491 5.80939   1
  -4  -2  16 -5.6435 4.83896   3
  -4  -2  16 0.61292 6.80785   2
   3   2 -16 -1.2778 5.31556   1
  -3  -2  16 1.61368 4.11993   3
  -3  -2  16 -0.0574 6.44423   2
   2   2 -16 -0.2008 4.88940   1
  -2  -2  16 9.55747 6.56928   2
  -2  -2  16 5.27763 4.00324   3
   1   2 -16 -1.8108 4.94835   1
  -1  -2  16 -1.2462 3.90194   3
   0   2 -16 -1.2001 5.15765   1
   0  -2  16 4.06944 3.79831   3
  -1   2 -16 3.37796 5.02928   1
   1  -2  16 4.48123 3.65860   3
   5   1 -16 -1.3425 5.91101   1
  -5  -1  16 8.62824 6.84812   2
  -5  -1  16 9.24915 5.33409   3
   4   1 -16 1.91741 5.56448   1
  -4  -1  16 -6.8814 4.44676   3
  -4  -1  16 -3.4804 6.42569   2
   3   1 -16 10.2785 7.33374   2
   3   1 -16 5.81690 5.02417   1
  -3  -1  16 13.3607 6.45042   2
  -3  -1  16 7.87588 4.27207   3
   2   1 -16 11.2621 6.26886   2
   2   1 -16 7.04976 5.42665   1
  -2  -1  16 3.93527 3.93985   3
   1   1 -16 9.95929 5.43785   1
  -1  -1  16 3.01751 3.76099   3
   0   1 -16 6.85065 4.89461   1
   0  -1  16 -0.3671 3.75062   3
  -1   1 -16 5.09524 5.82572   1
   1  -1  16 6.36074 3.80858   3
   6   0 -16 4.47589 6.50726   1
  -6   0  16 2.48155 6.05114   3
  -6   0  16 -2.7153 6.68577   2
   5   0 -16 2.33662 5.59341   1
  -5   0  16 -1.3520 4.96989   3
  -5   0  16 10.1872 6.62509   2
   4   0 -16 -4.2812 4.93087   1
   4   0 -16 -3.5261 6.38291   2
  -4   0  16 1.87018 4.60852   3
   3   0 -16 8.22293 5.26222   1
   3   0 -16 17.6467 6.42963   2
  -3   0  16 -0.5735 4.08674   3
   2   0 -16 -0.2926 6.11022   2
   2   0 -16 -2.8943 5.00719   1
  -2   0  16 0.18229 3.84591   3
   1   0 -16 0.20882 5.09866   1
  -1   0  16 4.15926 3.79133   3
   0   0 -16 -1.6986 5.56804   1
   0   0  16 -2.6488 3.90289   3
   6  -1 -16 4.68384 7.46991   2
   6  -1 -16 1.61585 6.12625   1
  -6   1  16 2.59484 5.04040   3
   5  -1 -16 -9.0578 5.73884   1
   5  -1 -16 3.59760 7.38616   2
  -5   1  16 3.06891 5.04405   3
   4  -1 -16 -3.8009 5.55971   1
   4  -1 -16 2.49255 6.16725   2
  -4   1  16 5.36234 4.59334   3
   3  -1 -16 -1.5488 6.19045   2
   3  -1 -16 1.82909 6.17459   1
  -3   1  16 -0.4740 4.15812   3
   2  -1 -16 10.6150 5.56312   1
   2  -1 -16 -1.3169 6.16361   2
  -2   1  16 8.27340 4.06616   3
   1  -1 -16 9.67066 5.21210   1
  -1   1  16 6.50459 4.22814   3
   0  -1 -16 9.17251 6.26118   1
   0   1  16 3.23149 4.09136   3
   6  -2 -16 -3.4913 5.79842   1
   6  -2 -16 7.79546 6.74917   2
  -6   2  16 21.9911 8.89434   3
   5  -2 -16 7.18298 7.33839   1
   5  -2 -16 -5.2902 6.52014   2
  -5   2  16 -3.5667 4.31590   3
   4  -2 -16 -14.995 6.06436   2
  -4   2  16 3.87337 4.70806   3
   3  -2 -16 1.78099 6.10178   2
   3  -2 -16 14.8312 7.31401   1
  -3   2  16 5.88849 4.57888   3
   2  -2 -16 -2.0434 6.13042   2
   2  -2 -16 10.8611 5.77010   1
  -2   2  16 -3.1413 4.36036   3
   1  -2 -16 7.16803 6.21424   1
  -1   2  16 3.28005 4.20892   3
   6  -3 -16 -6.5101 6.23681   2
  -6   3  16 10.9617 7.76034   3
   5  -3 -16 -8.0203 6.12376   2
  -5   3  16 6.04513 4.81969   3
   4  -3 -16 0.83875 6.50468   2
  -4   3  16 2.35296 4.95215   3
   3  -3 -16 -14.949 5.88998   2
   3  -3 -16 5.09936 6.88116   1
  -3   3  16 3.04023 4.51008   3
   2  -3 -16 21.5769 5.95336   2
   2  -3 -16 0.62408 6.68545   1
  -2   3  16 9.70065 4.58244   3
   5  -4 -16 -3.9452 7.22079   2
   4  -4 -16 -2.3038 6.34127   2
  -4   4  16 -10.302 4.95280   3
   0   0   0    0.00    0.00   0
;
_shelx_hkl_checksum                52527
_olex2_submission_special_instructions  'No special instructions were received'
