data_nik_chi_0m
_audit_creation_date               2019-02-24
_audit_creation_method
;
Olex2 1.2
(compiled 2018.05.29 svn.r3508 for OlexSys, GUI svn.r5506)
;
_shelx_SHELXL_version_number       '2014/7'
_audit_contact_author_address      ?
_audit_contact_author_email        ?
_audit_contact_author_name         ''
_audit_contact_author_phone        ?
_publ_contact_author_id_orcid      ?
_publ_section_references
;
Dolomanov, O.V., Bourhis, L.J., Gildea, R.J, Howard, J.A.K. & Puschmann, H.
 (2009), J. Appl. Cryst. 42, 339-341.

Sheldrick, G.M. (2015). Acta Cryst. A71, 3-8.

Sheldrick, G.M. (2015). Acta Cryst. C71, 3-8.
;
_chemical_name_common              ?
_chemical_name_systematic          ?
_chemical_formula_moiety           '2(C32 H18 I2)'
_chemical_formula_sum              'C64 H36 I4'
_chemical_formula_weight           1312.53
_chemical_absolute_configuration   ?
_chemical_melting_point            ?
loop_
  _atom_type_symbol
  _atom_type_description
  _atom_type_scat_dispersion_real
  _atom_type_scat_dispersion_imag
  _atom_type_scat_source
 'C' 'C' 0.0033 0.0016 'International Tables Vol C Tables 4.2.6.8 and 6.1.1.4'
 'H' 'H' 0.0000 0.0000 'International Tables Vol C Tables 4.2.6.8 and 6.1.1.4'
 'I' 'I' -0.4742 1.8119 'International Tables Vol C Tables 4.2.6.8 and 6.1.1.4'

_shelx_space_group_comment
;
The symmetry employed for this shelxl refinement is uniquely defined
by the following loop, which should always be used as a source of
symmetry information in preference to the above space-group names.
They are only intended as comments.
;
_space_group_crystal_system        'triclinic'
_space_group_IT_number             1
_space_group_name_H-M_alt          'P 1'
_space_group_name_Hall             'P 1'
loop_
  _space_group_symop_operation_xyz
 'x, y, z'

_cell_length_a                     9.2973(10)
_cell_length_b                     10.4393(11)
_cell_length_c                     15.0098(15)
_cell_angle_alpha                  102.391(3)
_cell_angle_beta                   99.151(3)
_cell_angle_gamma                  115.642(2)
_cell_volume                       1229.1(2)
_cell_formula_units_Z              1
_cell_measurement_reflns_used      6681
_cell_measurement_temperature      293(2)
_cell_measurement_theta_max        27.494
_cell_measurement_theta_min        2.281
_shelx_estimated_absorpt_T_max     33.855
_shelx_estimated_absorpt_T_min     2.289
_exptl_absorpt_coefficient_mu      2.577
_exptl_absorpt_correction_T_max    0.7456
_exptl_absorpt_correction_T_min    0.6844
_exptl_absorpt_correction_type     multi-scan
_exptl_absorpt_process_details
;
SADABS-2014/5 (Bruker,2014/5) was used for absorption correction.
wR2(int) was 0.1167 before and 0.0573 after correction.
The Ratio of minimum to maximum transmission is 0.9179.
The \l/2 correction factor is 0.00150.
;
_exptl_absorpt_special_details     ?
_exptl_crystal_colour              yellow
_exptl_crystal_colour_primary      yellow
_exptl_crystal_density_diffrn      1.773
_exptl_crystal_density_meas        'n/a'
_exptl_crystal_density_method      'not measured'
_exptl_crystal_description         block
_exptl_crystal_F_000               632
_exptl_crystal_preparation         ?
_exptl_crystal_size_max            0.62
_exptl_crystal_size_mid            0.54
_exptl_crystal_size_min            0.13
_exptl_transmission_factor_max     ?
_exptl_transmission_factor_min     ?
_diffrn_reflns_av_R_equivalents    0.0419
_diffrn_reflns_av_unetI/netI       0.0999
_diffrn_reflns_Laue_measured_fraction_full  0.999
_diffrn_reflns_Laue_measured_fraction_max  0.993
_diffrn_reflns_limit_h_max         12
_diffrn_reflns_limit_h_min         -12
_diffrn_reflns_limit_k_max         13
_diffrn_reflns_limit_k_min         -13
_diffrn_reflns_limit_l_max         19
_diffrn_reflns_limit_l_min         -19
_diffrn_reflns_number              18895
_diffrn_reflns_point_group_measured_fraction_full  0.980
_diffrn_reflns_point_group_measured_fraction_max  0.964
_diffrn_reflns_theta_full          25.242
_diffrn_reflns_theta_max           27.767
_diffrn_reflns_theta_min           2.282
_diffrn_ambient_temperature        293(2)
_diffrn_detector_area_resol_mean   ?
_diffrn_measured_fraction_theta_full  0.999
_diffrn_measured_fraction_theta_max  0.993
_diffrn_measurement_device_type    'Bruker APEX-II CCD'
_diffrn_measurement_method         '\f and \w scans'
_diffrn_radiation_type             MoK\a
_diffrn_radiation_wavelength       0.71073
_diffrn_source                     ?
_reflns_Friedel_coverage           0.942
_reflns_Friedel_fraction_full      0.962
_reflns_Friedel_fraction_max       0.935
_reflns_number_gt                  6759
_reflns_number_total               11174
_reflns_special_details
;
 Reflections were merged by SHELXL according to the crystal
 class for the calculation of statistics and refinement.
 
 _reflns_Friedel_fraction is defined as the number of unique
 Friedel pairs measured divided by the number that would be
 possible theoretically, ignoring centric projections and
 systematic absences.
;
_reflns_threshold_expression       'I > 2\s(I)'
_computing_cell_refinement         ?
_computing_data_collection         ?
_computing_data_reduction          ?
_computing_molecular_graphics      'Olex2 (Dolomanov et al., 2009)'
_computing_publication_material    'Olex2 (Dolomanov et al., 2009)'
_computing_structure_refinement    'ShelXL (Sheldrick, 2015)'
_computing_structure_solution      'ShelXT (Sheldrick, 2015)'
_refine_diff_density_max           1.103
_refine_diff_density_min           -0.494
_refine_diff_density_rms           0.111
_refine_ls_abs_structure_details
;
 Flack x determined using 2317 quotients [(I+)-(I-)]/[(I+)+(I-)]
 (Parsons, Flack and Wagner, Acta Cryst. B69 (2013) 249-259).
;
_refine_ls_abs_structure_Flack     0.032(14)
_refine_ls_extinction_coef         .
_refine_ls_extinction_method       none
_refine_ls_goodness_of_fit_ref     1.060
_refine_ls_hydrogen_treatment      constr
_refine_ls_matrix_type             full
_refine_ls_number_parameters       613
_refine_ls_number_reflns           11174
_refine_ls_number_restraints       3
_refine_ls_R_factor_all            0.1308
_refine_ls_R_factor_gt             0.0654
_refine_ls_restrained_S_all        1.060
_refine_ls_shift/su_max            0.000
_refine_ls_shift/su_mean           0.000
_refine_ls_structure_factor_coef   Fsqd
_refine_ls_weighting_details      
 'w=1/[\s^2^(Fo^2^)+(0.0300P)^2^+0.5170P] where P=(Fo^2^+2Fc^2^)/3'
_refine_ls_weighting_scheme        calc
_refine_ls_wR_factor_gt            0.0912
_refine_ls_wR_factor_ref           0.1056
_refine_special_details            ?
_olex2_refinement_description
;
1. Fixed Uiso
 At 1.2 times of:
  All C(H) groups
2.a Aromatic/amide H refined with riding coordinates:
 C5C(H008), C20C(H009), C60C(H00P), C41C(H00R), C10C(H00S), C53C(H00T),
 C50C(H00V), C43C(H00W), C11C(H010), C54C(H013), C64C(H015), C56C(H016),
 C44C(H017), C31C(H018), C21C(H019), C4C(H01A), C47C(H01B), C12C(H01D),
 C29C(H01E), C24C(H01F), C30C(H01G), C33C(H01H), C28C(H01I), C14C(H01K),
 C36C(H01L), C63C(H01M), C35C(H01N), C2C(H01O), C37C(H01P), C62C(H01Q),
 C1C(H01R), C34C(H01S), C25C(H01T), C32C(H01U), C61C(H01V), C3C(H01W)
;
_atom_sites_solution_hydrogens     geom
_atom_sites_solution_primary       direct
_atom_sites_solution_secondary     ?
loop_
  _atom_site_label
  _atom_site_type_symbol
  _atom_site_fract_x
  _atom_site_fract_y
  _atom_site_fract_z
  _atom_site_U_iso_or_equiv
  _atom_site_adp_type
  _atom_site_occupancy
  _atom_site_site_symmetry_order
  _atom_site_calc_flag
  _atom_site_refinement_flags_posn
  _atom_site_refinement_flags_adp
  _atom_site_refinement_flags_occupancy
  _atom_site_disorder_assembly
  _atom_site_disorder_group
 I001 I 0.12144(12) 0.51555(10) 0.80512(6) 0.0676(3) Uani 1 1 d . . . . .
 I002 I 0.31656(12) 0.21055(10) 0.19493(6) 0.0681(3) Uani 1 1 d . . . . .
 I003 I -0.09468(11) 0.36095(12) 0.00759(6) 0.0820(4) Uani 1 1 d . . . . .
 I004 I 0.89779(11) 0.85349(12) 0.99247(6) 0.0819(4) Uani 1 1 d . . . . .
 C005 C 0.4614(15) 0.3875(14) 0.5431(9) 0.033(3) Uani 1 1 d . . . . .
 C006 C 0.0765(17) 0.4674(15) 0.5067(9) 0.041(3) Uani 1 1 d . . . . .
 C007 C 0.7326(14) 0.5947(13) 0.5460(8) 0.039(3) Uani 1 1 d . . . . .
 C008 C 0.3698(15) 0.5845(13) 0.1046(9) 0.046(3) Uani 1 1 d . . . . .
 H008 H 0.3765 0.5009 0.1122 0.056 Uiso 1 1 calc R . . . .
 C009 C 0.1268(17) 0.5158(17) 0.6057(9) 0.047(4) Uani 1 1 d . . . . .
 H009 H 0.2259 0.6034 0.6394 0.056 Uiso 1 1 calc R . . . .
 C00A C -0.1451(15) 0.3010(13) 0.3570(8) 0.036(3) Uani 1 1 d . . . . .
 C00B C -0.0823(16) 0.3428(15) 0.4573(9) 0.036(3) Uani 1 1 d . . . . .
 C00C C 0.5701(17) 0.4604(14) 0.4938(9) 0.040(3) Uani 1 1 d . . . . .
 C00D C 0.2719(16) 0.6292(15) 0.1459(9) 0.041(4) Uani 1 1 d . . . . .
 C00E C 0.1230(17) 0.5031(13) 0.3534(8) 0.037(3) Uani 1 1 d . . . . .
 C00F C 1.1247(16) 0.9825(16) 0.8544(8) 0.044(4) Uani 1 1 d . . . . .
 C00G C -0.1805(16) 0.2593(14) 0.5098(9) 0.037(3) Uani 1 1 d . . . . .
 C00H C 0.6549(14) 0.5809(12) 0.6970(8) 0.033(3) Uani 1 1 d . . . . .
 C00I C 0.3694(18) 0.2745(16) 0.3448(9) 0.047(4) Uani 1 1 d . . . . .
 C00J C 0.9299(14) 0.7817(13) 0.6993(8) 0.036(3) Uani 1 1 d . . . . .
 C00K C 0.0051(15) 0.4290(14) 0.1553(8) 0.042(3) Uani 1 1 d . . . . .
 C00L C 0.1839(14) 0.5474(14) 0.4533(9) 0.039(3) Uani 1 1 d . . . . .
 C00M C 0.2290(14) 0.5814(12) 0.3003(8) 0.035(3) Uani 1 1 d . . . . .
 C00N C 0.1628(15) 0.5411(13) 0.1986(8) 0.038(3) Uani 1 1 d . . . . .
 C00O C -0.0403(14) 0.3860(12) 0.3029(8) 0.034(3) Uani 1 1 d . . . . .
 C00P C 1.2659(15) 0.9816(13) 0.8955(9) 0.048(3) Uani 1 1 d . . . . .
 H00P H 1.2646 0.8903 0.8880 0.057 Uiso 1 1 calc R . . . .
 C00Q C 0.9662(15) 0.8432(13) 0.8012(9) 0.041(3) Uani 1 1 d . . . . .
 C00R C 0.5218(19) 0.4109(18) 0.3941(10) 0.052(4) Uani 1 1 d . . . . .
 H00R H 0.5872 0.4653 0.3607 0.062 Uiso 1 1 calc R . . . .
 C00S C 0.3913(15) 0.6950(13) 0.3496(8) 0.043(3) Uani 1 1 d . . . . .
 H00S H 0.4600 0.7456 0.3161 0.052 Uiso 1 1 calc R . . . .
 C00T C 1.0053(16) 0.7874(14) 0.5536(9) 0.052(4) Uani 1 1 d . . . . .
 H00T H 1.0815 0.8319 0.5217 0.062 Uiso 1 1 calc R . . . .
 C00U C 0.7728(16) 0.6525(14) 0.6472(9) 0.037(3) Uani 1 1 d . . . . .
 C00V C 0.8516(16) 0.6616(13) 0.5031(9) 0.049(3) Uani 1 1 d . . . . .
 H00V H 0.8289 0.6215 0.4377 0.058 Uiso 1 1 calc R . . . .
 C00W C 0.2021(16) 0.1785(15) 0.5419(10) 0.044(4) Uani 1 1 d . . . . .
 H00W H 0.1021 0.0912 0.5093 0.053 Uiso 1 1 calc R . . . .
 C00X C 0.023(2) 0.4283(17) 0.6552(9) 0.048(4) Uani 1 1 d . . . . .
 C00Y C 0.1165(16) 0.0432(14) 0.3396(8) 0.040(3) Uani 1 1 d . . . . .
 C00Z C -0.1211(18) 0.3025(15) 0.6096(9) 0.043(3) Uani 1 1 d . . . . .
 C010 C 0.4509(16) 0.7330(14) 0.4451(9) 0.054(4) Uani 1 1 d . . . . .
 H010 H 0.5597 0.8082 0.4767 0.065 Uiso 1 1 calc R . . . .
 C011 C 0.8500(15) 0.7735(14) 0.8447(8) 0.044(3) Uani 1 1 d . . . . .
 C012 C 0.2683(16) 0.1935(15) 0.3899(9) 0.042(3) Uani 1 1 d . . . . .
 C013 C 1.0429(16) 0.8445(13) 0.6501(9) 0.046(3) Uani 1 1 d . . . . .
 H013 H 1.1463 0.9273 0.6837 0.056 Uiso 1 1 calc R . . . .
 C014 C 0.4990(16) 0.4440(14) 0.6431(8) 0.041(3) Uani 1 1 d . . . . .
 C015 C 1.4102(15) 1.1119(15) 0.9477(8) 0.050(3) Uani 1 1 d . . . . .
 H015 H 1.5054 1.1091 0.9751 0.061 Uiso 1 1 calc R . . . .
 C016 C 0.6979(15) 0.6458(13) 0.7928(8) 0.043(3) Uani 1 1 d . . . . .
 H016 H 0.6223 0.6030 0.8255 0.051 Uiso 1 1 calc R . . . .
 C017 C 0.2429(17) 0.2351(16) 0.6372(10) 0.055(4) Uani 1 1 d . . . . .
 H017 H 0.1713 0.1838 0.6692 0.066 Uiso 1 1 calc R . . . .
 C018 C -0.409(2) 0.0169(19) 0.7535(11) 0.068(5) Uani 1 1 d . . . . .
 H018 H -0.4730 -0.0460 0.7836 0.081 Uiso 1 1 calc R . . . .
 C019 C -0.3008(16) 0.1776(14) 0.3112(9) 0.042(3) Uani 1 1 d . . . . .
 H019 H -0.3416 0.1483 0.2454 0.050 Uiso 1 1 calc R . . . .
 C01A C 0.4589(15) 0.6630(14) 0.0516(8) 0.054(3) Uani 1 1 d . . . . .
 H01A H 0.5240 0.6313 0.0223 0.064 Uiso 1 1 calc R . . . .
 C01B C 0.3881(16) 0.3674(14) 0.6895(9) 0.045(3) Uani 1 1 d . . . . .
 H01B H 0.4111 0.4046 0.7551 0.054 Uiso 1 1 calc R . . . .
 C01C C 0.3109(16) 0.2512(14) 0.4907(9) 0.040(3) Uani 1 1 d . . . . .
 C01D C 0.3467(18) 0.6576(14) 0.4965(9) 0.053(4) Uani 1 1 d . . . . .
 H01D H 0.3896 0.6833 0.5619 0.063 Uiso 1 1 calc R . . . .
 C01E C -0.2203(16) 0.0716(14) 0.6580(8) 0.044(3) Uani 1 1 d . . . . .
 H01E H -0.1565 0.0443 0.6245 0.053 Uiso 1 1 calc R . . . .
 C01F C -0.3965(16) 0.0973(15) 0.3614(9) 0.048(4) Uani 1 1 d . . . . .
 H01F H -0.5012 0.0152 0.3293 0.058 Uiso 1 1 calc R . . . .
 C01G C -0.3148(17) -0.0226(15) 0.7032(9) 0.054(3) Uani 1 1 d . . . . .
 H01G H -0.3145 -0.1126 0.6994 0.064 Uiso 1 1 calc R . . . .
 C01H C -0.161(2) -0.2352(19) 0.2476(11) 0.066(5) Uani 1 1 d . . . . .
 H01H H -0.2557 -0.3281 0.2182 0.079 Uiso 1 1 calc R . . . .
 C01I C -0.3129(19) 0.2413(18) 0.7128(11) 0.069(4) Uani 1 1 d . . . . .
 H01I H -0.3133 0.3313 0.7168 0.083 Uiso 1 1 calc R . . . .
 C01J C -0.2196(17) 0.2055(16) 0.6619(10) 0.045(4) Uani 1 1 d . . . . .
 C01K C -0.0967(16) 0.3514(15) 0.2057(9) 0.051(4) Uani 1 1 d . . . . .
 H01K H -0.2045 0.2751 0.1731 0.062 Uiso 1 1 calc R . . . .
 C01L C 0.1210(15) -0.0867(13) 0.3418(8) 0.041(3) Uani 1 1 d . . . . .
 H01L H 0.2187 -0.0807 0.3744 0.050 Uiso 1 1 calc R . . . .
 C01M C 1.4111(18) 1.2451(16) 0.9584(9) 0.064(4) Uani 1 1 d . . . . .
 H01M H 1.5078 1.3336 0.9940 0.076 Uiso 1 1 calc R . . . .
 C01N C -0.0194(18) -0.2266(14) 0.2959(9) 0.052(3) Uani 1 1 d . . . . .
 H01N H -0.0159 -0.3135 0.2985 0.062 Uiso 1 1 calc R . . . .
 C01O C 0.3567(18) 0.8331(16) 0.0813(10) 0.059(4) Uani 1 1 d . . . . .
 H01O H 0.3510 0.9171 0.0739 0.071 Uiso 1 1 calc R . . . .
 C01P C -0.0249(19) 0.0297(16) 0.2877(11) 0.074(5) Uani 1 1 d . . . . .
 H01P H -0.0277 0.1159 0.2829 0.089 Uiso 1 1 calc R . . . .
 C01Q C 1.2756(18) 1.2514(15) 0.9188(10) 0.059(4) Uani 1 1 d . . . . .
 H01Q H 1.2781 1.3431 0.9257 0.071 Uiso 1 1 calc R . . . .
 C01R C 0.4519(17) 0.7870(16) 0.0421(9) 0.058(4) Uani 1 1 d . . . . .
 H01R H 0.5149 0.8407 0.0075 0.070 Uiso 1 1 calc R . . . .
 C01S C -0.1651(18) -0.1071(18) 0.2417(11) 0.080(5) Uani 1 1 d . . . . .
 H01S H -0.2613 -0.1128 0.2071 0.096 Uiso 1 1 calc R . . . .
 C01T C -0.3380(17) 0.1380(16) 0.4587(9) 0.044(4) Uani 1 1 d . . . . .
 H01T H -0.4049 0.0833 0.4915 0.053 Uiso 1 1 calc R . . . .
 C01U C -0.407(2) 0.150(2) 0.7586(11) 0.081(5) Uani 1 1 d . . . . .
 H01U H -0.4683 0.1795 0.7930 0.097 Uiso 1 1 calc R . . . .
 C01V C 1.1318(18) 1.1184(18) 0.8675(10) 0.060(4) Uani 1 1 d . . . . .
 H01V H 1.0367 1.1221 0.8410 0.072 Uiso 1 1 calc R . . . .
 C01W C 0.2660(18) 0.7511(18) 0.1339(10) 0.058(4) Uani 1 1 d . . . . .
 H01W H 0.1990 0.7819 0.1618 0.069 Uiso 1 1 calc R . . . .

loop_
  _atom_site_aniso_label
  _atom_site_aniso_U_11
  _atom_site_aniso_U_22
  _atom_site_aniso_U_33
  _atom_site_aniso_U_23
  _atom_site_aniso_U_13
  _atom_site_aniso_U_12
 I001 0.1008(9) 0.0690(7) 0.0330(5) 0.0162(5) 0.0184(5) 0.0415(6)
 I002 0.0908(8) 0.0614(7) 0.0340(5) 0.0045(4) 0.0003(5) 0.0322(6)
 I003 0.0517(6) 0.1177(9) 0.0331(5) 0.0221(6) 0.0067(4) 0.0066(6)
 I004 0.0544(6) 0.1027(8) 0.0332(5) -0.0015(5) 0.0128(4) 0.0013(6)
 C005 0.032(7) 0.029(7) 0.033(7) 0.006(6) 0.004(5) 0.014(6)
 C006 0.055(9) 0.043(8) 0.033(7) 0.020(6) 0.016(6) 0.027(7)
 C007 0.037(7) 0.027(7) 0.032(7) 0.003(6) 0.002(5) 0.004(6)
 C008 0.045(8) 0.039(7) 0.056(8) 0.021(6) 0.018(6) 0.018(7)
 C009 0.040(8) 0.049(8) 0.041(8) 0.011(7) -0.006(6) 0.020(7)
 C00A 0.041(8) 0.036(7) 0.029(6) 0.007(5) 0.012(5) 0.016(6)
 C00B 0.038(8) 0.037(8) 0.047(8) 0.018(6) 0.016(6) 0.026(7)
 C00C 0.053(9) 0.023(7) 0.039(7) 0.007(6) 0.012(6) 0.017(7)
 C00D 0.043(8) 0.039(8) 0.031(7) 0.017(6) 0.012(6) 0.008(7)
 C00E 0.052(9) 0.026(7) 0.026(6) 0.003(5) 0.004(6) 0.017(6)
 C00F 0.048(9) 0.040(9) 0.022(6) -0.003(6) 0.013(6) 0.007(7)
 C00G 0.040(8) 0.038(8) 0.041(7) 0.021(6) 0.018(6) 0.019(7)
 C00H 0.029(7) 0.022(6) 0.035(7) 0.002(5) 0.002(5) 0.007(6)
 C00I 0.052(10) 0.035(8) 0.036(8) -0.009(6) -0.001(7) 0.021(8)
 C00J 0.027(7) 0.033(7) 0.035(6) 0.004(5) 0.006(5) 0.008(6)
 C00K 0.037(8) 0.044(8) 0.031(7) 0.009(6) 0.010(6) 0.009(7)
 C00L 0.028(7) 0.031(7) 0.049(8) 0.019(6) 0.006(6) 0.004(6)
 C00M 0.037(7) 0.033(7) 0.035(6) 0.015(5) 0.011(5) 0.015(6)
 C00N 0.045(8) 0.038(7) 0.041(7) 0.015(6) 0.022(6) 0.024(7)
 C00O 0.033(7) 0.025(6) 0.035(7) 0.006(5) 0.004(5) 0.009(6)
 C00P 0.041(8) 0.033(7) 0.058(8) 0.014(6) 0.010(6) 0.009(7)
 C00Q 0.038(8) 0.037(7) 0.044(7) 0.013(6) 0.010(6) 0.016(6)
 C00R 0.057(9) 0.059(10) 0.046(9) 0.021(8) 0.021(7) 0.029(8)
 C00S 0.047(8) 0.035(7) 0.042(7) 0.017(6) 0.007(6) 0.013(6)
 C00T 0.059(9) 0.048(8) 0.049(8) 0.023(7) 0.031(7) 0.016(7)
 C00U 0.042(8) 0.033(7) 0.046(7) 0.019(6) 0.016(6) 0.022(7)
 C00V 0.053(9) 0.035(7) 0.043(7) 0.008(6) 0.016(6) 0.010(7)
 C00W 0.030(7) 0.030(8) 0.051(9) -0.003(6) 0.005(6) 0.007(6)
 C00X 0.076(11) 0.052(10) 0.030(7) 0.027(7) 0.019(7) 0.035(9)
 C00Y 0.043(8) 0.034(8) 0.028(7) -0.003(6) -0.004(6) 0.017(7)
 C00Z 0.060(9) 0.037(8) 0.042(7) 0.017(6) 0.023(7) 0.028(7)
 C010 0.045(8) 0.046(8) 0.048(8) 0.015(6) -0.001(6) 0.006(7)
 C011 0.036(8) 0.053(8) 0.023(6) 0.000(6) 0.007(6) 0.009(7)
 C012 0.041(8) 0.043(8) 0.035(7) 0.002(6) 0.002(6) 0.022(7)
 C013 0.046(8) 0.027(7) 0.048(8) 0.011(6) 0.006(6) 0.004(6)
 C014 0.050(9) 0.041(7) 0.036(7) 0.013(6) 0.014(6) 0.024(7)
 C015 0.041(8) 0.059(9) 0.045(7) 0.019(7) 0.012(6) 0.016(7)
 C016 0.042(8) 0.034(7) 0.034(7) 0.004(6) 0.016(6) 0.005(6)
 C017 0.050(9) 0.052(9) 0.048(8) 0.013(7) 0.017(7) 0.012(8)
 C018 0.068(11) 0.072(12) 0.059(10) 0.041(9) 0.013(8) 0.023(9)
 C019 0.037(8) 0.045(8) 0.038(7) 0.019(6) 0.010(6) 0.012(7)
 C01A 0.044(8) 0.048(9) 0.044(7) 0.007(6) 0.013(6) 0.005(7)
 C01B 0.046(8) 0.041(8) 0.028(6) 0.002(6) 0.004(6) 0.010(7)
 C01C 0.040(8) 0.031(8) 0.042(7) 0.002(6) 0.006(6) 0.019(7)
 C01D 0.075(10) 0.049(8) 0.031(6) 0.015(6) 0.008(7) 0.028(8)
 C01E 0.049(8) 0.048(8) 0.043(7) 0.019(6) 0.015(6) 0.028(7)
 C01F 0.032(7) 0.047(9) 0.052(8) 0.019(7) 0.009(6) 0.006(7)
 C01G 0.052(9) 0.057(9) 0.060(9) 0.028(7) 0.015(7) 0.030(8)
 C01H 0.054(10) 0.059(11) 0.062(10) 0.000(8) 0.011(8) 0.018(9)
 C01I 0.090(12) 0.086(11) 0.082(11) 0.051(10) 0.053(10) 0.065(10)
 C01J 0.048(9) 0.061(9) 0.051(9) 0.036(8) 0.027(7) 0.035(8)
 C01K 0.038(8) 0.057(9) 0.037(8) 0.013(7) 0.001(6) 0.009(7)
 C01L 0.033(7) 0.038(8) 0.047(7) 0.012(6) 0.012(6) 0.012(6)
 C01M 0.048(9) 0.041(9) 0.050(8) -0.006(7) 0.002(7) -0.008(7)
 C01N 0.063(10) 0.034(8) 0.059(8) 0.011(6) 0.022(7) 0.024(7)
 C01O 0.073(10) 0.064(10) 0.065(10) 0.043(8) 0.039(8) 0.037(9)
 C01P 0.069(11) 0.050(9) 0.079(11) -0.006(8) -0.008(9) 0.030(9)
 C01Q 0.050(9) 0.040(8) 0.063(9) 0.000(7) -0.001(7) 0.014(8)
 C01R 0.046(9) 0.053(9) 0.050(8) 0.029(7) 0.016(7) -0.003(7)
 C01S 0.048(10) 0.062(11) 0.090(12) 0.007(9) -0.023(8) 0.014(9)
 C01T 0.050(9) 0.056(9) 0.046(8) 0.035(8) 0.024(7) 0.032(8)
 C01U 0.099(13) 0.101(14) 0.081(12) 0.053(11) 0.068(11) 0.056(11)
 C01V 0.053(10) 0.066(11) 0.046(9) 0.000(8) -0.007(7) 0.032(9)
 C01W 0.066(10) 0.069(11) 0.051(9) 0.022(8) 0.034(8) 0.036(9)

_geom_special_details
;
 All esds (except the esd in the dihedral angle between two l.s. planes)
 are estimated using the full covariance matrix.  The cell esds are taken
 into account individually in the estimation of esds in distances, angles
 and torsion angles; correlations between esds in cell parameters are only
 used when they are defined by crystal symmetry.  An approximate (isotropic)
 treatment of cell esds is used for estimating esds involving l.s. planes.
;
loop_
  _geom_bond_atom_site_label_1
  _geom_bond_atom_site_label_2
  _geom_bond_distance
  _geom_bond_site_symmetry_2
  _geom_bond_publ_flag
 I001 C00X 2.116(13) . ?
 I002 C00I 2.114(14) . ?
 I003 C00K 2.092(12) . ?
 I004 C011 2.095(11) . ?
 C005 C00C 1.401(17) . ?
 C005 C014 1.413(16) . ?
 C005 C01C 1.431(18) . ?
 C006 C009 1.391(17) . ?
 C006 C00B 1.414(18) . ?
 C006 C00L 1.469(17) . ?
 C007 C00C 1.477(17) . ?
 C007 C00U 1.428(17) . ?
 C007 C00V 1.370(17) . ?
 C008 H008 0.9300 . ?
 C008 C00D 1.361(17) . ?
 C008 C01A 1.375(16) . ?
 C009 H009 0.9300 . ?
 C009 C00X 1.44(2) . ?
 C00A C00B 1.420(16) . ?
 C00A C00O 1.485(16) . ?
 C00A C019 1.384(17) . ?
 C00B C00G 1.431(18) . ?
 C00C C00R 1.400(18) . ?
 C00D C00N 1.504(17) . ?
 C00D C01W 1.35(2) . ?
 C00E C00L 1.410(17) . ?
 C00E C00M 1.451(17) . ?
 C00E C00O 1.416(16) . ?
 C00F C00P 1.364(18) . ?
 C00F C00Q 1.482(17) . ?
 C00F C01V 1.36(2) . ?
 C00G C00Z 1.408(17) . ?
 C00G C01T 1.399(18) . ?
 C00H C00U 1.453(17) . ?
 C00H C014 1.462(16) . ?
 C00H C016 1.361(15) . ?
 C00I C00R 1.43(2) . ?
 C00I C012 1.35(2) . ?
 C00J C00Q 1.446(16) . ?
 C00J C00U 1.430(17) . ?
 C00J C013 1.392(16) . ?
 C00K C00N 1.351(16) . ?
 C00K C01K 1.398(17) . ?
 C00L C01D 1.377(17) . ?
 C00M C00N 1.445(16) . ?
 C00M C00S 1.397(15) . ?
 C00O C01K 1.379(16) . ?
 C00P H00P 0.9300 . ?
 C00P C015 1.376(16) . ?
 C00Q C011 1.367(16) . ?
 C00R H00R 0.9300 . ?
 C00S H00S 0.9300 . ?
 C00S C010 1.354(16) . ?
 C00T H00T 0.9300 . ?
 C00T C00V 1.394(17) . ?
 C00T C013 1.365(16) . ?
 C00V H00V 0.9300 . ?
 C00W H00W 0.9300 . ?
 C00W C017 1.345(18) . ?
 C00W C01C 1.422(18) . ?
 C00X C00Z 1.34(2) . ?
 C00Y C012 1.504(18) . ?
 C00Y C01L 1.382(17) . ?
 C00Y C01P 1.349(18) . ?
 C00Z C01J 1.500(18) . ?
 C010 H010 0.9300 . ?
 C010 C01D 1.410(17) . ?
 C011 C016 1.398(16) . ?
 C012 C01C 1.422(17) . ?
 C013 H013 0.9300 . ?
 C014 C01B 1.393(17) . ?
 C015 H015 0.9300 . ?
 C015 C01M 1.361(18) . ?
 C016 H016 0.9300 . ?
 C017 H017 0.9300 . ?
 C017 C01B 1.389(18) . ?
 C018 H018 0.9300 . ?
 C018 C01G 1.38(2) . ?
 C018 C01U 1.37(2) . ?
 C019 H019 0.9300 . ?
 C019 C01F 1.379(17) . ?
 C01A H01A 0.9300 . ?
 C01A C01R 1.360(18) . ?
 C01B H01B 0.9300 . ?
 C01D H01D 0.9300 . ?
 C01E H01E 0.9300 . ?
 C01E C01G 1.388(17) . ?
 C01E C01J 1.383(17) . ?
 C01F H01F 0.9300 . ?
 C01F C01T 1.375(17) . ?
 C01G H01G 0.9300 . ?
 C01H H01H 0.9300 . ?
 C01H C01N 1.353(19) . ?
 C01H C01S 1.38(2) . ?
 C01I H01I 0.9300 . ?
 C01I C01J 1.358(18) . ?
 C01I C01U 1.373(19) . ?
 C01K H01K 0.9300 . ?
 C01L H01L 0.9300 . ?
 C01L C01N 1.394(17) . ?
 C01M H01M 0.9300 . ?
 C01M C01Q 1.340(19) . ?
 C01N H01N 0.9300 . ?
 C01O H01O 0.9300 . ?
 C01O C01R 1.332(19) . ?
 C01O C01W 1.394(19) . ?
 C01P H01P 0.9300 . ?
 C01P C01S 1.376(19) . ?
 C01Q H01Q 0.9300 . ?
 C01Q C01V 1.384(19) . ?
 C01R H01R 0.9300 . ?
 C01S H01S 0.9300 . ?
 C01T H01T 0.9300 . ?
 C01U H01U 0.9300 . ?
 C01V H01V 0.9300 . ?
 C01W H01W 0.9300 . ?

loop_
  _geom_angle_atom_site_label_1
  _geom_angle_atom_site_label_2
  _geom_angle_atom_site_label_3
  _geom_angle
  _geom_angle_site_symmetry_1
  _geom_angle_site_symmetry_3
  _geom_angle_publ_flag
 C00C C005 C01C 118.8(12) . . ?
 C014 C005 C00C 121.5(11) . . ?
 C014 C005 C01C 119.7(12) . . ?
 C009 C006 C00B 119.4(12) . . ?
 C009 C006 C00L 120.8(13) . . ?
 C00B C006 C00L 119.8(11) . . ?
 C00U C007 C00C 118.6(11) . . ?
 C00V C007 C00C 123.3(11) . . ?
 C00V C007 C00U 118.0(11) . . ?
 C00D C008 H008 120.0 . . ?
 C00D C008 C01A 119.9(13) . . ?
 C01A C008 H008 120.0 . . ?
 C006 C009 H009 120.5 . . ?
 C006 C009 C00X 118.9(13) . . ?
 C00X C009 H009 120.5 . . ?
 C00B C00A C00O 119.6(10) . . ?
 C019 C00A C00B 118.9(11) . . ?
 C019 C00A C00O 121.4(10) . . ?
 C006 C00B C00A 120.7(12) . . ?
 C006 C00B C00G 119.2(12) . . ?
 C00A C00B C00G 120.1(12) . . ?
 C005 C00C C007 120.5(11) . . ?
 C005 C00C C00R 120.1(12) . . ?
 C00R C00C C007 119.3(12) . . ?
 C008 C00D C00N 122.0(13) . . ?
 C01W C00D C008 118.5(12) . . ?
 C01W C00D C00N 119.4(13) . . ?
 C00L C00E C00M 119.4(11) . . ?
 C00O C00E C00L 122.0(11) . . ?
 C00O C00E C00M 118.6(11) . . ?
 C00P C00F C00Q 122.6(13) . . ?
 C01V C00F C00P 117.1(12) . . ?
 C01V C00F C00Q 120.2(13) . . ?
 C00Z C00G C00B 120.5(12) . . ?
 C01T C00G C00B 117.6(12) . . ?
 C01T C00G C00Z 121.9(11) . . ?
 C00U C00H C014 119.2(11) . . ?
 C016 C00H C00U 117.3(10) . . ?
 C016 C00H C014 123.5(11) . . ?
 C00R C00I I002 114.2(11) . . ?
 C012 C00I I002 122.7(10) . . ?
 C012 C00I C00R 123.0(13) . . ?
 C00U C00J C00Q 119.1(11) . . ?
 C013 C00J C00Q 122.2(10) . . ?
 C013 C00J C00U 118.7(11) . . ?
 C00N C00K I003 120.7(9) . . ?
 C00N C00K C01K 122.2(11) . . ?
 C01K C00K I003 117.1(9) . . ?
 C00E C00L C006 119.2(11) . . ?
 C01D C00L C006 122.3(12) . . ?
 C01D C00L C00E 118.4(11) . . ?
 C00N C00M C00E 119.1(11) . . ?
 C00S C00M C00E 118.8(11) . . ?
 C00S C00M C00N 122.1(10) . . ?
 C00K C00N C00D 122.8(11) . . ?
 C00K C00N C00M 119.0(11) . . ?
 C00M C00N C00D 118.1(11) . . ?
 C00E C00O C00A 118.4(10) . . ?
 C01K C00O C00A 121.8(11) . . ?
 C01K C00O C00E 119.8(11) . . ?
 C00F C00P H00P 119.1 . . ?
 C00F C00P C015 121.9(13) . . ?
 C015 C00P H00P 119.1 . . ?
 C00J C00Q C00F 119.1(11) . . ?
 C011 C00Q C00F 122.2(11) . . ?
 C011 C00Q C00J 118.7(11) . . ?
 C00C C00R C00I 118.5(14) . . ?
 C00C C00R H00R 120.7 . . ?
 C00I C00R H00R 120.7 . . ?
 C00M C00S H00S 119.3 . . ?
 C010 C00S C00M 121.4(12) . . ?
 C010 C00S H00S 119.3 . . ?
 C00V C00T H00T 120.3 . . ?
 C013 C00T H00T 120.3 . . ?
 C013 C00T C00V 119.5(11) . . ?
 C007 C00U C00H 120.4(11) . . ?
 C00J C00U C007 119.6(11) . . ?
 C00J C00U C00H 120.0(11) . . ?
 C007 C00V C00T 122.6(11) . . ?
 C007 C00V H00V 118.7 . . ?
 C00T C00V H00V 118.7 . . ?
 C017 C00W H00W 119.8 . . ?
 C017 C00W C01C 120.4(12) . . ?
 C01C C00W H00W 119.8 . . ?
 C009 C00X I001 113.8(11) . . ?
 C00Z C00X I001 123.7(10) . . ?
 C00Z C00X C009 122.5(12) . . ?
 C01L C00Y C012 120.3(11) . . ?
 C01P C00Y C012 121.8(12) . . ?
 C01P C00Y C01L 117.9(12) . . ?
 C00G C00Z C01J 119.3(12) . . ?
 C00X C00Z C00G 119.1(12) . . ?
 C00X C00Z C01J 121.6(12) . . ?
 C00S C010 H010 120.2 . . ?
 C00S C010 C01D 119.5(11) . . ?
 C01D C010 H010 120.2 . . ?
 C00Q C011 I004 120.5(9) . . ?
 C00Q C011 C016 121.5(11) . . ?
 C016 C011 I004 117.9(9) . . ?
 C00I C012 C00Y 123.5(12) . . ?
 C00I C012 C01C 118.1(12) . . ?
 C01C C012 C00Y 118.3(12) . . ?
 C00J C013 H013 119.3 . . ?
 C00T C013 C00J 121.5(11) . . ?
 C00T C013 H013 119.3 . . ?
 C005 C014 C00H 119.7(11) . . ?
 C01B C014 C005 119.6(11) . . ?
 C01B C014 C00H 120.6(10) . . ?
 C00P C015 H015 120.6 . . ?
 C01M C015 C00P 118.7(13) . . ?
 C01M C015 H015 120.6 . . ?
 C00H C016 C011 123.3(11) . . ?
 C00H C016 H016 118.4 . . ?
 C011 C016 H016 118.4 . . ?
 C00W C017 H017 118.8 . . ?
 C00W C017 C01B 122.4(13) . . ?
 C01B C017 H017 118.8 . . ?
 C01G C018 H018 120.5 . . ?
 C01U C018 H018 120.5 . . ?
 C01U C018 C01G 119.0(14) . . ?
 C00A C019 H019 119.4 . . ?
 C00A C019 C01F 121.3(12) . . ?
 C01F C019 H019 119.4 . . ?
 C008 C01A H01A 120.0 . . ?
 C01R C01A C008 120.1(13) . . ?
 C01R C01A H01A 120.0 . . ?
 C014 C01B C017 119.7(12) . . ?
 C014 C01B H01B 120.1 . . ?
 C017 C01B H01B 120.1 . . ?
 C00W C01C C005 118.1(12) . . ?
 C012 C01C C005 120.8(13) . . ?
 C012 C01C C00W 121.0(12) . . ?
 C00L C01D C010 122.4(11) . . ?
 C00L C01D H01D 118.8 . . ?
 C010 C01D H01D 118.8 . . ?
 C01G C01E H01E 119.5 . . ?
 C01G C01E C01J 121.1(12) . . ?
 C01J C01E H01E 119.5 . . ?
 C019 C01F H01F 119.8 . . ?
 C01T C01F C019 120.3(12) . . ?
 C01T C01F H01F 119.8 . . ?
 C018 C01G C01E 120.1(13) . . ?
 C018 C01G H01G 120.0 . . ?
 C01E C01G H01G 120.0 . . ?
 C01N C01H H01H 119.8 . . ?
 C01N C01H C01S 120.3(14) . . ?
 C01S C01H H01H 119.8 . . ?
 C01J C01I H01I 118.6 . . ?
 C01J C01I C01U 122.9(14) . . ?
 C01U C01I H01I 118.6 . . ?
 C01E C01J C00Z 119.9(12) . . ?
 C01I C01J C00Z 122.9(12) . . ?
 C01I C01J C01E 117.2(12) . . ?
 C00K C01K H01K 119.4 . . ?
 C00O C01K C00K 121.3(12) . . ?
 C00O C01K H01K 119.4 . . ?
 C00Y C01L H01L 119.6 . . ?
 C00Y C01L C01N 120.7(12) . . ?
 C01N C01L H01L 119.6 . . ?
 C015 C01M H01M 119.3 . . ?
 C01Q C01M C015 121.5(13) . . ?
 C01Q C01M H01M 119.3 . . ?
 C01H C01N C01L 119.5(13) . . ?
 C01H C01N H01N 120.2 . . ?
 C01L C01N H01N 120.2 . . ?
 C01R C01O H01O 121.1 . . ?
 C01R C01O C01W 117.8(14) . . ?
 C01W C01O H01O 121.1 . . ?
 C00Y C01P H01P 118.8 . . ?
 C00Y C01P C01S 122.4(15) . . ?
 C01S C01P H01P 118.8 . . ?
 C01M C01Q H01Q 120.8 . . ?
 C01M C01Q C01V 118.5(14) . . ?
 C01V C01Q H01Q 120.8 . . ?
 C01A C01R H01R 119.4 . . ?
 C01O C01R C01A 121.3(12) . . ?
 C01O C01R H01R 119.4 . . ?
 C01H C01S H01S 120.5 . . ?
 C01P C01S C01H 119.0(15) . . ?
 C01P C01S H01S 120.5 . . ?
 C00G C01T H01T 119.1 . . ?
 C01F C01T C00G 121.8(12) . . ?
 C01F C01T H01T 119.1 . . ?
 C018 C01U C01I 119.8(15) . . ?
 C018 C01U H01U 120.1 . . ?
 C01I C01U H01U 120.1 . . ?
 C00F C01V C01Q 122.3(14) . . ?
 C00F C01V H01V 118.9 . . ?
 C01Q C01V H01V 118.9 . . ?
 C00D C01W C01O 122.4(14) . . ?
 C00D C01W H01W 118.8 . . ?
 C01O C01W H01W 118.8 . . ?

_shelx_res_file
;
    nik_chi_0m.res created by SHELXL-2014/7

TITL nik_chi_0m_a.res in P1
REM Old TITL Nik_CHI_0m in P-1 #2
REM SHELXT solution in P1
REM R1 0.247, Rweak 0.098, Alpha 0.000, Orientation as input
REM Flack x = 0.052 ( 0.014 ) from Parsons' quotients
REM Formula found by SHELXT: C64 I4
CELL 0.71073 9.2973 10.4393 15.0098 102.391 99.151 115.642
ZERR 1 0.001 0.0011 0.0015 0.003 0.003 0.002
LATT -1
SFAC C H I
UNIT 64 36 4

L.S. 10 0 0
PLAN  5
BOND $H
LIST 6
fmap 2 53
ACTA
REM <olex2.extras>
REM <HklSrc "%.\\Nik_CHI_0m.hkl">
REM </olex2.extras>

WGHT    0.030000    0.517000
FVAR       0.30154
I001  3    0.121439    0.515547    0.805125    11.00000    0.10084    0.06903 =
         0.03299    0.01623    0.01836    0.04147
I002  3    0.316558    0.210552    0.194930    11.00000    0.09077    0.06138 =
         0.03397    0.00446    0.00034    0.03223
I003  3   -0.094677    0.360951    0.007593    11.00000    0.05165    0.11773 =
         0.03305    0.02213    0.00673    0.00658
I004  3    0.897787    0.853494    0.992472    11.00000    0.05444    0.10272 =
         0.03317   -0.00154    0.01281    0.00131
C005  1    0.461387    0.387526    0.543133    11.00000    0.03218    0.02906 =
         0.03319    0.00554    0.00383    0.01398
C006  1    0.076537    0.467367    0.506678    11.00000    0.05534    0.04291 =
         0.03311    0.02011    0.01611    0.02692
C007  1    0.732601    0.594683    0.546019    11.00000    0.03658    0.02691 =
         0.03239    0.00268    0.00219    0.00412
C008  1    0.369823    0.584488    0.104588    11.00000    0.04463    0.03900 =
         0.05649    0.02078    0.01775    0.01750
AFIX  43
H008  2    0.376465    0.500923    0.112184    11.00000   -1.20000
AFIX   0
C009  1    0.126826    0.515828    0.605708    11.00000    0.04046    0.04892 =
         0.04052    0.01149   -0.00628    0.01958
AFIX  43
H009  2    0.225938    0.603380    0.639440    11.00000   -1.20000
AFIX   0
C00A  1   -0.145139    0.300967    0.356954    11.00000    0.04071    0.03559 =
         0.02909    0.00732    0.01198    0.01631
C00B  1   -0.082345    0.342779    0.457292    11.00000    0.03788    0.03705 =
         0.04715    0.01781    0.01609    0.02570

C00C  1    0.570105    0.460360    0.493779    11.00000    0.05321    0.02342 =
         0.03935    0.00725    0.01222    0.01735
C00D  1    0.271935    0.629174    0.145853    11.00000    0.04307    0.03905 =
         0.03070    0.01671    0.01163    0.00806
C00E  1    0.123041    0.503126    0.353387    11.00000    0.05235    0.02586 =
         0.02554    0.00333    0.00442    0.01652
C00F  1    1.124670    0.982493    0.854422    11.00000    0.04760    0.03996 =
         0.02172   -0.00256    0.01348    0.00652
C00G  1   -0.180502    0.259311    0.509774    11.00000    0.03954    0.03842 =
         0.04058    0.02144    0.01805    0.01927
C00H  1    0.654923    0.580923    0.697021    11.00000    0.02946    0.02241 =
         0.03492    0.00181    0.00227    0.00734
C00I  1    0.369437    0.274548    0.344832    11.00000    0.05243    0.03457 =
         0.03597   -0.00860   -0.00104    0.02061
C00J  1    0.929944    0.781710    0.699346    11.00000    0.02653    0.03306 =
         0.03518    0.00409    0.00568    0.00812
C00K  1    0.005126    0.429038    0.155252    11.00000    0.03695    0.04417 =
         0.03126    0.00858    0.00984    0.00894
C00L  1    0.183927    0.547355    0.453280    11.00000    0.02750    0.03061 =
         0.04916    0.01861    0.00591    0.00382
C00M  1    0.228999    0.581363    0.300287    11.00000    0.03694    0.03269 =
         0.03532    0.01518    0.01073    0.01508
C00N  1    0.162756    0.541101    0.198551    11.00000    0.04517    0.03810 =
         0.04103    0.01546    0.02156    0.02365
C00O  1   -0.040285    0.385978    0.302945    11.00000    0.03338    0.02503 =
         0.03461    0.00621    0.00402    0.00916
C00P  1    1.265893    0.981571    0.895498    11.00000    0.04054    0.03324 =
         0.05767    0.01384    0.00982    0.00913
AFIX  43
H00P  2    1.264610    0.890275    0.888021    11.00000   -1.20000
AFIX   0
C00Q  1    0.966202    0.843153    0.801198    11.00000    0.03847    0.03715 =
         0.04426    0.01320    0.00975    0.01573
C00R  1    0.521773    0.410859    0.394125    11.00000    0.05672    0.05945 =
         0.04569    0.02124    0.02096    0.02938
AFIX  43
H00R  2    0.587176    0.465319    0.360701    11.00000   -1.20000
AFIX   0

C00S  1    0.391338    0.694952    0.349582    11.00000    0.04673    0.03460 =
         0.04152    0.01721    0.00743    0.01324
AFIX  43
H00S  2    0.460042    0.745592    0.316054    11.00000   -1.20000
AFIX   0

C00T  1    1.005252    0.787365    0.553558    11.00000    0.05856    0.04776 =
         0.04859    0.02316    0.03081    0.01619
AFIX  43
H00T  2    1.081504    0.831945    0.521734    11.00000   -1.20000
AFIX   0
C00U  1    0.772807    0.652506    0.647177    11.00000    0.04192    0.03304 =
         0.04552    0.01902    0.01636    0.02204
C00V  1    0.851585    0.661607    0.503093    11.00000    0.05280    0.03517 =
         0.04323    0.00781    0.01646    0.01021
AFIX  43
H00V  2    0.828929    0.621542    0.437685    11.00000   -1.20000
AFIX   0
C00W  1    0.202118    0.178454    0.541889    11.00000    0.03021    0.02954 =
         0.05137   -0.00254    0.00456    0.00666
AFIX  43
H00W  2    0.102131    0.091161    0.509265    11.00000   -1.20000
AFIX   0

C00X  1    0.022965    0.428256    0.655160    11.00000    0.07645    0.05177 =
         0.02991    0.02687    0.01858    0.03547
C00Y  1    0.116471    0.043182    0.339578    11.00000    0.04336    0.03416 =
         0.02849   -0.00334   -0.00381    0.01708
C00Z  1   -0.121063    0.302469    0.609565    11.00000    0.06043    0.03689 =
         0.04166    0.01703    0.02319    0.02802
C010  1    0.450884    0.732959    0.445141    11.00000    0.04519    0.04616 =
         0.04778    0.01477   -0.00094    0.00620
AFIX  43
H010  2    0.559693    0.808216    0.476677    11.00000   -1.20000
AFIX   0

C011  1    0.849981    0.773501    0.844662    11.00000    0.03576    0.05284 =
         0.02276    0.00020    0.00659    0.00912
C012  1    0.268333    0.193542    0.389862    11.00000    0.04094    0.04255 =
         0.03545    0.00162    0.00225    0.02152
C013  1    1.042886    0.844542    0.650076    11.00000    0.04614    0.02654 =
         0.04751    0.01067    0.00565    0.00433
AFIX  43
H013  2    1.146283    0.927315    0.683665    11.00000   -1.20000
AFIX   0
C014  1    0.499003    0.443986    0.643100    11.00000    0.05028    0.04106 =
         0.03558    0.01334    0.01447    0.02412
C015  1    1.410242    1.111920    0.947698    11.00000    0.04061    0.05867 =
         0.04454    0.01900    0.01213    0.01643
AFIX  43
H015  2    1.505384    1.109079    0.975123    11.00000   -1.20000
AFIX   0
C016  1    0.697886    0.645789    0.792848    11.00000    0.04191    0.03425 =
         0.03432    0.00433    0.01585    0.00486
AFIX  43
H016  2    0.622326    0.603049    0.825501    11.00000   -1.20000
AFIX   0
C017  1    0.242898    0.235094    0.637188    11.00000    0.05009    0.05151 =
         0.04785    0.01313    0.01706    0.01161
AFIX  43
H017  2    0.171292    0.183819    0.669229    11.00000   -1.20000
AFIX   0

C018  1   -0.408855    0.016895    0.753521    11.00000    0.06762    0.07225 =
         0.05924    0.04132    0.01315    0.02328
AFIX  43
H018  2   -0.472953   -0.046035    0.783615    11.00000   -1.20000
AFIX   0
C019  1   -0.300802    0.177589    0.311242    11.00000    0.03656    0.04504 =
         0.03801    0.01922    0.01011    0.01212
AFIX  43
H019  2   -0.341610    0.148287    0.245395    11.00000   -1.20000
AFIX   0
C01A  1    0.458897    0.663046    0.051647    11.00000    0.04385    0.04817 =
         0.04406    0.00691    0.01270    0.00477
AFIX  43
H01A  2    0.523984    0.631333    0.022337    11.00000   -1.20000
AFIX   0

C01B  1    0.388063    0.367370    0.689458    11.00000    0.04574    0.04061 =
         0.02834    0.00188    0.00372    0.01018
AFIX  43
H01B  2    0.411107    0.404637    0.755126    11.00000   -1.20000
AFIX   0
C01C  1    0.310915    0.251197    0.490708    11.00000    0.04041    0.03123 =
         0.04227    0.00219    0.00580    0.01871

C01D  1    0.346723    0.657607    0.496477    11.00000    0.07496    0.04861 =
         0.03076    0.01535    0.00849    0.02764
AFIX  43
H01D  2    0.389550    0.683319    0.561900    11.00000   -1.20000
AFIX   0
C01E  1   -0.220342    0.071629    0.657976    11.00000    0.04877    0.04811 =
         0.04314    0.01875    0.01487    0.02813
AFIX  43
H01E  2   -0.156524    0.044333    0.624533    11.00000   -1.20000
AFIX   0
C01F  1   -0.396532    0.097290    0.361425    11.00000    0.03199    0.04661 =
         0.05168    0.01909    0.00902    0.00553
AFIX  43
H01F  2   -0.501175    0.015242    0.329317    11.00000   -1.20000
AFIX   0
C01G  1   -0.314765   -0.022650    0.703157    11.00000    0.05212    0.05725 =
         0.05976    0.02843    0.01495    0.02969
AFIX  43
H01G  2   -0.314472   -0.112621    0.699405    11.00000   -1.20000
AFIX   0

C01H  1   -0.160876   -0.235153    0.247569    11.00000    0.05370    0.05921 =
         0.06165   -0.00023    0.01111    0.01822
AFIX  43
H01H  2   -0.255673   -0.328057    0.218179    11.00000   -1.20000
AFIX   0

C01I  1   -0.312860    0.241330    0.712801    11.00000    0.08969    0.08583 =
         0.08227    0.05127    0.05294    0.06483
AFIX  43
H01I  2   -0.313283    0.331311    0.716832    11.00000   -1.20000
AFIX   0
C01J  1   -0.219633    0.205493    0.661890    11.00000    0.04847    0.06102 =
         0.05071    0.03581    0.02689    0.03533
C01K  1   -0.096691    0.351440    0.205708    11.00000    0.03838    0.05676 =
         0.03744    0.01350    0.00065    0.00879
AFIX  43
H01K  2   -0.204518    0.275071    0.173097    11.00000   -1.20000
AFIX   0

C01L  1    0.120970   -0.086707    0.341848    11.00000    0.03257    0.03796 =
         0.04734    0.01238    0.01187    0.01207
AFIX  43
H01L  2    0.218724   -0.080724    0.374373    11.00000   -1.20000
AFIX   0
C01M  1    1.411063    1.245069    0.958410    11.00000    0.04849    0.04144 =
         0.05003   -0.00565    0.00175   -0.00822
AFIX  43
H01M  2    1.507838    1.333630    0.994007    11.00000   -1.20000
AFIX   0
C01N  1   -0.019430   -0.226619    0.295915    11.00000    0.06322    0.03386 =
         0.05871    0.01136    0.02200    0.02433
AFIX  43
H01N  2   -0.015896   -0.313465    0.298484    11.00000   -1.20000
AFIX   0

C01O  1    0.356732    0.833063    0.081341    11.00000    0.07307    0.06397 =
         0.06513    0.04269    0.03895    0.03680
AFIX  43
H01O  2    0.350963    0.917051    0.073902    11.00000   -1.20000
AFIX   0

C01P  1   -0.024914    0.029656    0.287734    11.00000    0.06899    0.05048 =
         0.07906   -0.00565   -0.00818    0.02973
AFIX  43
H01P  2   -0.027734    0.115940    0.282934    11.00000   -1.20000
AFIX   0
C01Q  1    1.275605    1.251425    0.918830    11.00000    0.05031    0.03966 =
         0.06283    0.00010   -0.00063    0.01356
AFIX  43
H01Q  2    1.278140    1.343125    0.925704    11.00000   -1.20000
AFIX   0

C01R  1    0.451949    0.787025    0.042089    11.00000    0.04625    0.05348 =
         0.05013    0.02872    0.01572   -0.00301
AFIX  43
H01R  2    0.514915    0.840736    0.007466    11.00000   -1.20000
AFIX   0

C01S  1   -0.165120   -0.107081    0.241687    11.00000    0.04849    0.06158 =
         0.08997    0.00683   -0.02297    0.01394
AFIX  43
H01S  2   -0.261273   -0.112804    0.207118    11.00000   -1.20000
AFIX   0

C01T  1   -0.338004    0.137956    0.458722    11.00000    0.05024    0.05612 =
         0.04639    0.03543    0.02436    0.03177
AFIX  43
H01T  2   -0.404926    0.083312    0.491486    11.00000   -1.20000
AFIX   0
C01U  1   -0.406555    0.150477    0.758599    11.00000    0.09945    0.10105 =
         0.08146    0.05335    0.06780    0.05619
AFIX  43
H01U  2   -0.468280    0.179508    0.792967    11.00000   -1.20000
AFIX   0

C01V  1    1.131791    1.118425    0.867472    11.00000    0.05346    0.06556 =
         0.04608    0.00032   -0.00696    0.03203
AFIX  43
H01V  2    1.036727    1.122091    0.840963    11.00000   -1.20000
AFIX   0

C01W  1    0.266023    0.751142    0.133942    11.00000    0.06556    0.06921 =
         0.05057    0.02156    0.03364    0.03632
AFIX  43
H01W  2    0.198989    0.781887    0.161815    11.00000   -1.20000
AFIX   0
HKLF 4

REM  nik_chi_0m_a.res in P1
REM R1 =  0.0654 for    6759 Fo > 4sig(Fo)  and  0.1308 for all   11174 data
REM    613 parameters refined using      3 restraints

END

WGHT      0.0291      0.5143

REM Highest difference peak  1.103,  deepest hole -0.494,  1-sigma level  0.111
Q1    1  -0.1326  0.4360  0.0396  11.00000  0.05    0.63
Q2    1   0.1345  0.5148  0.7406  11.00000  0.05    0.62
Q3    1   0.8301  0.9040  0.9639  11.00000  0.05    0.57
Q4    1   0.1116  0.4249  0.7624  11.00000  0.05    0.57
Q5    1   0.2255  0.4911  0.7781  11.00000  0.05    0.56
;
_shelx_res_checksum                25640
_shelx_hkl_file
;
  -1   0   0 1231.41   31.20
  -1   0   0 1270.79   31.71
  -1   0   0 1178.60   31.08
   1   0   0 1170.42   31.91
   1   0   0 1233.89   30.92
   1   0   0 1230.26   31.07
  -2   0   0  771.76   20.73
  -2   0   0  680.45   21.63
  -2   0   0  749.94   18.89
  -2   0   0  725.02   20.85
   2   0   0  756.48   20.65
   2   0   0  775.05   22.07
   2   0   0  757.03   18.89
   2   0   0  698.67   20.77
  -3   0   0  247.67    9.94
   3   0   0  256.30    9.65
   3   0   0  250.82   10.88
   3   0   0  260.26    7.47
   3   0   0  251.77    8.02
  -4   0   0  606.31   20.53
   4   0   0  623.86   16.59
   4   0   0  621.03   21.83
   4   0   0  618.62   17.24
   4   0   0  603.35   19.84
  -5   0   0  544.67   19.57
   5   0   0  509.27   14.89
   5   0   0  489.03   20.00
   5   0   0  498.80   14.17
   5   0   0  496.17   18.02
  -6   0   0   46.80    5.23
   6   0   0   46.31    5.48
   6   0   0   42.81    3.13
   6   0   0   38.54    2.75
   6   0   0   42.32    5.82
  -7   0   0   29.62    5.49
   7   0   0   33.55    7.86
   7   0   0   25.74    5.75
   7   0   0   29.18    2.74
  -8   0   0   38.60   10.27
  -8   0   0   52.19    7.94
   8   0   0   34.15    8.22
  -9   0   0   36.23   10.32
  -9   0   0   31.64    7.52
   9   0   0   25.30   10.53
 -10   0   0    8.31   13.23
 -10   0   0   27.20    8.11
  10   0   0   11.23    9.95
 -10   1   0   -4.89   14.03
 -10   1   0   11.52   10.37
   9  -1   0    1.45    6.07
  -9   1   0    5.25    8.05
  -9   1   0   -1.59    5.57
   8  -1   0   13.13    6.72
  -8   1   0   10.85    4.70
   7  -1   0   15.85    3.01
   7  -1   0   11.48    4.62
  -7   1   0   12.72    4.01
  -7   1   0   13.34    4.90
   6  -1   0    1.78    2.05
   6  -1   0    2.05    3.73
   6  -1   0    0.20    2.33
  -6   1   0    6.26    2.76
   5  -1   0   96.16    5.94
   5  -1   0   91.98    7.41
   5  -1   0   99.47    5.31
  -5   1   0   93.91    6.86
   4  -1   0  216.64    8.42
   4  -1   0  220.32   10.72
   4  -1   0  215.26    7.48
  -4   1   0  206.05    7.49
  -4   1   0  205.07    9.40
   3  -1   0  450.09   13.43
   3  -1   0  447.04   13.18
   3  -1   0  456.98   16.02
  -3   1   0  472.51   13.61
  -3   1   0  436.40   14.67
  -3   1   0  462.26   13.27
   2  -1   0  193.24    6.47
   2  -1   0  195.95    7.89
   2  -1   0  192.52    6.01
   2  -1   0  193.69    7.16
  -2   1   0  212.86    6.15
  -2   1   0  210.48    6.61
  -2   1   0  203.29    7.21
   1  -1   0  -13.47    0.61
   1  -1   0  -14.10    0.41
   1  -1   0  -14.87    0.45
  -1   1   0  -14.37    0.42
  -1   1   0  -13.49    0.59
  -1  -1   0  846.98   23.45
  -1  -1   0  861.02   23.87
  -1  -1   0  831.33   23.61
   1   1   0  898.04   24.02
   1   1   0  909.92   23.62
   1   1   0  884.21   23.73
   2   1   0  342.02   12.21
   2   1   0  337.04   11.98
  -3  -1   0  268.58   10.94
   3   1   0  264.55   10.94
   3   1   0  261.91   11.52
  -4  -1   0   11.73    2.91
   4   1   0   14.77    3.48
   4   1   0   15.96    4.37
   5   1   0   30.52    5.18
  -6  -1   0    7.51    3.83
   6   1   0   13.02    4.44
   6   1   0   13.06    4.71
  -7  -1   0   -1.15    4.25
   7   1   0   -0.03    4.86
   7   1   0   -7.11    4.87
  -8  -1   0    9.90    9.66
  -8  -1   0   14.02    5.60
   8   1   0   18.45    7.28
   8   1   0   19.59    6.42
  -9  -1   0  -12.26   11.88
  -9  -1   0   10.41    7.46
   9   1   0   16.32    9.89
 -10  -1   0    6.23    9.80
 -10  -1   0    4.59   15.71
  11  -2   0   18.09   11.87
 -11   2   0   16.65    9.99
  10  -2   0   29.14    8.35
 -10   2   0   13.38    8.36
   9  -2   0   21.46    8.18
  -9   2   0   24.57    5.78
  -9   2   0   14.53    7.17
   8  -2   0    5.93    3.40
  -8   2   0    0.27    4.27
  -8   2   0    7.43    4.92
   7  -2   0  118.52    9.75
   7  -2   0  119.04    7.25
  -7   2   0  111.46    9.05
  -7   2   0  127.34    8.26
   6  -2   0  264.14   11.50
   6  -2   0  256.14   15.51
  -6   2   0  284.80   11.85
  -6   2   0  244.26   14.05
   5  -2   0  374.92   16.53
  -5   2   0  371.19   12.62
  -5   2   0  360.66   14.47
  -5   2   0  356.03   13.01
   4  -2   0  193.37    9.97
  -4   2   0  208.66    7.10
  -4   2   0  209.23    7.66
  -4   2   0  201.46    7.96
  -4   2   0  192.65    8.84
   3  -2   0   92.34    5.82
  -3   2   0   91.41    3.27
  -3   2   0  103.19    4.78
  -3   2   0   86.45    4.86
  -3   2   0   90.71    3.55
   2  -2   0 9943.09  254.01
   2  -2   0 9707.34  245.66
   2  -2   0 9563.30  245.34
  -2   2   0 9999.00  249.20
  -2   2   0 9758.36  244.53
  -2   2   0 9460.26  246.71
   1  -2   0 3086.64   76.04
   1  -2   0 3092.40   76.35
   1  -2   0 3028.44   77.27
   1  -2   0 3118.37   76.25
   1  -2   0 3078.21   79.12
  -1   2   0 3068.75   77.11
  -1   2   0 3105.05   79.22
  -1   2   0 2995.78   76.36
   0  -2   0  332.52    9.44
   0  -2   0  332.11   10.02
   0  -2   0  349.53   10.12
   0   2   0  312.84   10.52
   0   2   0  315.84    9.48
   0   2   0  317.47    9.98
   0   2   0  315.62   10.02
  -1  -2   0  714.64   20.87
  -1  -2   0  709.55   18.49
   1   2   0  728.87   18.56
   1   2   0  721.87   20.78
   1   2   0  717.57   21.56
  -2  -2   0  530.34   17.11
   2   2   0  501.46   17.51
   2   2   0  506.47   17.24
  -3  -2   0 1475.12   41.26
   3   2   0 1405.23   41.73
   3   2   0 1441.33   41.92
  -4  -2   0  216.44   10.93
   4   2   0  218.22   11.47
   4   2   0  225.18   11.56
  -5  -2   0   47.08    6.14
   5   2   0   59.69    6.11
   5   2   0   45.55    5.44
  -6  -2   0   51.71    7.09
   6   2   0   59.69    7.20
  -7  -2   0   41.29    6.71
   7   2   0   53.71    9.99
   7   2   0   42.10    8.14
  -8  -2   0   45.64    8.52
  -8  -2   0   66.47   13.21
   8   2   0   59.41   10.69
  -9  -2   0   15.46    8.92
  -9  -2   0    0.51   15.39
   9   2   0   27.35   10.31
  11  -3   0   -3.68    9.00
 -11   3   0    6.26    7.37
  10  -3   0  -11.52    7.86
 -10   3   0    4.79    5.73
   9  -3   0    5.51    4.48
   9  -3   0    2.15    7.07
  -9   3   0   -7.23    5.20
  -9   3   0   -0.23    4.39
   8  -3   0   -2.92    3.40
   8  -3   0    5.80    5.68
  -8   3   0   -2.29    3.57
  -8   3   0   -3.76    3.94
   7  -3   0   11.41    4.96
   7  -3   0   12.80    3.54
  -7   3   0    8.37    3.93
  -7   3   0    9.78    3.10
   6  -3   0  112.85    8.54
  -6   3   0   97.51    5.99
  -6   3   0   82.23    4.73
  -6   3   0   92.68    5.53
  -6   3   0  101.14    6.95
   5  -3   0   63.69    6.70
  -5   3   0   65.89    3.21
  -5   3   0   65.65    4.77
  -5   3   0   64.96    3.65
  -5   3   0   63.90    5.10
   4  -3   0  171.19    9.32
  -4   3   0  169.45    8.04
  -4   3   0  179.68    5.11
  -4   3   0  170.13    7.71
   3  -3   0    0.05    1.95
  -3   3   0    1.12    1.16
  -3   3   0   -1.88    1.01
   2  -3   0 2503.30   61.25
   2  -3   0 2351.32   64.22
  -2   3   0 2399.95   64.34
  -2   3   0 2429.28   61.69
  -2   3   0 2560.03   62.98
  -2   3   0 2516.65   63.16
   1  -3   0 1208.89   33.27
   1  -3   0 1247.20   33.04
  -1   3   0 1272.70   33.44
  -1   3   0 1256.08   33.38
  -1   3   0 1256.49   33.44
  -1   3   0 1271.11   33.07
   0  -3   0  511.44   15.08
   0   3   0  524.67   16.96
   0   3   0  539.57   16.13
   0   3   0  537.21   16.12
   0   3   0  527.40   15.31
  -1  -3   0  216.42    6.87
  -1  -3   0  214.52    9.07
   1   3   0  210.06    9.67
   1   3   0  211.91    6.98
   1   3   0  213.94    8.95
  -2  -3   0   82.91    3.30
  -2  -3   0   80.27    5.72
  -2  -3   0   83.71    3.05
   2   3   0   92.48    6.38
   2   3   0   84.03    5.73
  -3  -3   0   37.85    3.93
   3   3   0   28.58    4.53
   3   3   0   31.83    4.48
   4   3   0   70.62    6.90
  -5  -3   0   28.18    4.89
   5   3   0   47.12    6.61
   5   3   0   38.83    6.49
  -6  -3   0    2.84    4.04
   6   3   0   13.67    5.85
   6   3   0    8.50    6.01
   7   3   0   -0.33    6.98
   7   3   0   12.53    7.06
  -8  -3   0    7.20    7.47
  -8  -3   0   13.44   14.04
   8   3   0    4.36    9.59
   8   3   0   16.52    8.51
  11  -4   0   10.74   10.29
 -11   4   0   -4.47    7.64
  10  -4   0    4.50    5.84
  10  -4   0    1.63    7.42
 -10   4   0    6.60    6.43
   9  -4   0   17.67    7.22
   9  -4   0   -0.06    4.61
  -9   4   0    7.49    5.32
   8  -4   0   69.18    7.15
   8  -4   0   88.69   10.49
  -8   4   0   87.16    5.66
  -8   4   0   68.26    7.77
   7  -4   0   65.45    8.58
  -7   4   0   78.46    4.46
  -7   4   0   69.13    6.40
  -7   4   0   55.54    3.88
  -7   4   0   78.90    5.86
   6  -4   0  123.30    9.79
  -6   4   0  135.71    8.37
  -6   4   0  141.54    4.71
  -6   4   0  131.80    4.42
  -6   4   0  139.16    7.68
   5  -4   0   14.02    3.52
  -5   4   0   10.88    2.56
  -5   4   0   11.53    2.92
   4  -4   0  850.42   27.91
  -4   4   0  856.49   25.86
  -4   4   0  836.59   25.69
   3  -4   0  794.72   25.44
   3  -4   0  812.83   21.14
  -3   4   0  805.95   23.80
  -3   4   0  757.70   23.78
   2  -4   0  239.04   10.26
   2  -4   0  226.22    8.25
  -2   4   0  232.67    9.28
  -2   4   0  225.79    8.94
  -2   4   0  223.81    8.32
  -1   4   0  260.64    9.60
  -1   4   0  261.53    9.88
  -1   4   0  262.06    9.73
  -1   4   0  256.32   10.12
   0   4   0   11.36    2.02
   0   4   0   11.61    2.13
   0   4   0   11.21    2.47
   0   4   0   11.80    2.44
  -1  -4   0 1312.40   35.09
  -1  -4   0 1409.30   38.90
  -1  -4   0 1358.17   36.57
   1   4   0 1351.44   35.42
   1   4   0 1326.80   39.82
   1   4   0 1319.05   38.06
  -2  -4   0  447.67   12.63
  -2  -4   0  448.09   17.03
  -2  -4   0  442.47   13.24
   2   4   0  458.25   17.11
   2   4   0  439.94   17.94
  -3  -4   0   35.28    4.89
   3   4   0   34.40    4.55
   3   4   0   27.68    5.56
  -4  -4   0   79.49    6.78
   4   4   0   82.07    7.95
   4   4   0   85.27    7.32
  -5  -4   0   19.72    5.38
   5   4   0   26.60    5.77
   5   4   0   26.76    5.92
  -6  -4   0   57.91    8.71
   6   4   0   87.57    9.67
   6   4   0   67.79   11.12
  -7  -4   0   40.40    8.13
   7   4   0   39.97   10.97
   7   4   0   55.87   10.54
  -8  -4   0   28.52    9.03
   8   4   0    6.12   12.15
  11  -5   0    9.87    7.81
 -11   5   0    6.75    6.95
  10  -5   0   -2.18    7.58
  10  -5   0    4.10    5.76
 -10   5   0    2.43    5.29
   9  -5   0   -8.08    6.98
   9  -5   0   -0.26    4.77
  -9   5   0    6.43    4.94
   8  -5   0   30.60    7.68
   8  -5   0   34.26    6.30
  -8   5   0   27.55    4.77
  -8   5   0   42.82    6.19
   7  -5   0   29.35    6.68
  -7   5   0   33.09    5.31
  -6   5   0   27.39    3.89
   5  -5   0    3.55    3.63
  -5   5   0   -0.58    1.85
  -5   5   0    2.66    2.13
   4  -5   0  692.56   18.64
   4  -5   0  658.78   24.13
  -4   5   0  683.32   22.57
  -4   5   0  706.26   22.56
  -4   5   0  708.25   18.70
   3  -5   0  729.37   24.57
   3  -5   0  695.06   20.53
  -3   5   0  718.54   22.92
  -3   5   0  714.93   22.43
  -3   5   0  731.14   20.75
   2  -5   0  394.27   15.75
  -2   5   0  397.29   14.31
  -2   5   0  401.10   13.94
  -2   5   0  396.39   14.16
  -2   5   0  389.93   13.56
  -1   5   0  151.63    7.37
  -1   5   0  153.69    7.57
  -1   5   0  145.97    8.06
  -1   5   0  143.68    7.14
   0  -5   0   52.47    4.97
   0   5   0   51.55    4.39
   0   5   0   52.14    3.83
   0   5   0   51.13    4.38
   0   5   0   48.60    5.03
  -1  -5   0   18.90    3.45
   1   5   0   24.62    3.38
   1   5   0   23.94    5.16
  -2  -5   0   75.71    4.05
  -2  -5   0   94.26    7.22
  -2  -5   0   85.40    4.80
   2   5   0   85.25    8.08
   2   5   0   87.13    6.63
  -3  -5   0   80.65    6.77
   3   5   0   81.42    7.55
   3   5   0   64.71    7.37
  -4  -5   0   14.47    4.45
   4   5   0   14.02    5.25
   4   5   0   13.11    5.00
  -5  -5   0   13.74    5.66
   5   5   0   11.10    6.04
   5   5   0   16.40    7.05
  -6  -5   0    1.70    6.09
   6   5   0    2.08    6.72
   6   5   0   13.06    8.28
  -7  -5   0  -13.26   13.14
   7   5   0   -5.23    9.95
   7   5   0   41.85   18.96
  11  -6   0   -3.01    7.39
  11  -6   0    3.29    9.49
 -11   6   0   14.96   12.16
  10  -6   0    5.09    8.35
  10  -6   0    7.04    6.75
 -10   6   0   20.82    5.85
   9  -6   0   18.45    6.71
   9  -6   0    2.16    6.10
  -9   6   0   11.97    4.94
  -8   6   0   13.98    4.14
  -8   6   0   20.77    4.10
   7  -6   0   23.69    6.28
  -7   6   0   20.41    3.83
  -7   6   0   28.30    4.24
   6  -6   0   87.63    7.88
  -6   6   0   84.76    6.85
  -6   6   0   78.87    6.26
   5  -6   0  265.62   13.68
  -5   6   0  256.39   12.25
  -5   6   0  255.79   11.86
   4  -6   0  134.76    8.73
   4  -6   0  138.70    6.02
  -4   6   0  133.75    5.96
  -4   6   0  130.28    7.76
  -4   6   0  139.31    7.90
   3  -6   0   93.22    7.30
  -3   6   0   75.23    5.76
  -3   6   0   81.92    5.74
  -3   6   0   85.85    5.25
  -2   6   0   59.32    5.27
  -2   6   0   61.47    4.69
  -2   6   0   66.52    5.11
  -2   6   0   55.89    4.60
  -1   6   0  371.67   14.34
  -1   6   0  362.83   13.82
  -1   6   0  369.17   14.02
  -1   6   0  365.52   15.10
   0  -6   0  239.18   11.63
   0   6   0  215.70   11.66
   0   6   0  224.54   10.36
   0   6   0  226.67    9.49
  -1  -6   0   33.02    4.56
  -1  -6   0   22.85    3.95
   1   6   0   24.28    4.63
   1   6   0   22.02    4.68
  -2  -6   0   53.57    5.66
  -2  -6   0   58.33    4.46
   2   6   0   47.30    5.73
   2   6   0   50.42    7.67
  -3  -6   0   11.64    3.98
   3   6   0    8.43    4.74
   3   6   0    5.77    5.27
  -4  -6   0   37.41    6.61
   4   6   0   45.35    8.68
   4   6   0   40.23    8.98
  -5  -6   0   32.81    7.55
   5   6   0   53.45   10.15
   5   6   0   32.51    8.84
  -6  -6   0    4.62    7.40
   6   6   0    8.19    9.23
   6   6   0   -6.96    9.24
  11  -7   0   14.08    7.88
  11  -7   0   19.89    9.88
  10  -7   0    6.65    9.17
  10  -7   0   11.31    7.28
 -10   7   0   -4.21    5.39
   9  -7   0   17.16    6.52
   9  -7   0    3.81    7.54
  -9   7   0    2.96    4.34
   8  -7   0    1.99    6.41
  -8   7   0    4.30    3.94
  -8   7   0   -1.73    3.25
   7  -7   0    7.87    4.71
  -7   7   0   -3.61    3.71
  -6   7   0   94.23    7.69
  -6   7   0   80.16    6.58
   5  -7   0  144.29   10.07
   5  -7   0  139.17    6.22
  -5   7   0  138.92    5.79
  -5   7   0  140.53    8.96
   4  -7   0  132.55    9.47
  -4   7   0  130.86    6.88
  -4   7   0  136.81    8.23
   3  -7   0   45.25    6.55
  -3   7   0   50.28    4.92
  -3   7   0   58.62    5.34
  -3   7   0   55.09    5.10
  -2   7   0   15.14    3.71
  -2   7   0   13.22    3.36
  -2   7   0   16.06    3.36
  -1   7   0   63.36    5.68
  -1   7   0   68.49    5.63
  -1   7   0   68.36    7.04
  -1   7   0   78.16    5.82
   0  -7   0   73.96    6.38
   0  -7   0   71.14    6.35
   0   7   0   71.07    6.11
   0   7   0   65.73    7.02
  -1  -7   0   48.36    5.33
  -1  -7   0   41.45    5.82
   1   7   0   41.12    7.12
   1   7   0   31.49    5.50
  -2  -7   0   13.74    5.01
   2   7   0    4.90    4.79
   2   7   0   11.24    4.97
  -3  -7   0    1.51    5.68
   3   7   0   10.03    6.88
   3   7   0    4.77    6.09
  -4  -7   0   -0.10    5.59
   4   7   0    1.87    7.72
   4   7   0   -2.20    8.10
  -5  -7   0   21.86    7.38
   5   7   0   -7.07    9.61
   5   7   0    5.08   10.54
  11  -8   0   13.63   10.01
  11  -8   0    6.17    7.52
 -11   8   0    8.91    7.96
  10  -8   0   12.11    9.58
  10  -8   0   -0.94    6.98
 -10   8   0    5.05    6.88
   9  -8   0   12.24    7.78
   9  -8   0   16.79    6.92
  -9   8   0    6.23    4.91
   8  -8   0    5.47    6.01
  -8   8   0   10.35    3.63
  -8   8   0    5.83    4.37
  -7   8   0   49.08    5.99
  -7   8   0   43.61    5.95
   6  -8   0   65.43    4.87
   6  -8   0   69.63    9.23
  -6   8   0   61.87    6.78
  -6   8   0   53.19    6.23
   5  -8   0   29.62    6.17
  -5   8   0   26.90    4.54
  -5   8   0   27.52    3.96
  -5   8   0   38.08    5.27
   4  -8   0   47.32    6.85
  -4   8   0   46.57    4.73
  -4   8   0   54.05    5.05
  -4   8   0   43.17    5.15
   3  -8   0   59.88    8.23
  -3   8   0   71.98    5.87
  -3   8   0   69.37    6.49
  -2   8   0   63.61    6.80
  -2   8   0   77.96    6.23
  -2   8   0   75.19    5.97
   1  -8   0   21.37    5.52
  -1   8   0   10.68    4.23
  -1   8   0   16.22    4.40
   0  -8   0   15.99    4.50
   0  -8   0   13.17    4.66
   0   8   0   26.55    6.42
   0   8   0   22.57    4.93
  -1  -8   0   15.51    5.14
  -1  -8   0    6.13    4.32
   1   8   0    9.97    5.64
   1   8   0   14.18    5.28
  -2  -8   0   17.79    5.96
   2   8   0   17.72    7.16
   2   8   0    7.15    6.21
  -3  -8   0   29.73    7.14
   3   8   0   38.00    8.92
   3   8   0   35.25    9.12
  -4  -8   0   13.24    7.42
   4   8   0   22.68    9.48
  11  -9   0   -5.38    9.28
 -11   9   0  -10.32    7.38
  10  -9   0    8.99   10.46
  10  -9   0    9.98    7.12
 -10   9   0   -9.18    7.36
   9  -9   0    0.86    7.48
  -9   9   0   16.50    7.24
   8  -9   0    5.83    5.38
   8  -9   0    7.87    7.54
  -8   9   0   18.97    5.35
  -8   9   0   19.33    4.84
   7  -9   0   23.73    7.02
  -7   9   0   38.67    7.15
  -7   9   0   41.44    6.78
   6  -9   0   28.03    7.50
   6  -9   0   27.01    4.94
  -6   9   0   32.12    6.35
  -6   9   0   30.41    5.54
   5  -9   0    2.10    5.76
  -5   9   0   11.53    3.55
  -5   9   0   11.75    3.85
  -5   9   0    9.00    3.74
   4  -9   0    0.63    6.73
  -4   9   0   -2.11    3.23
  -4   9   0    8.02    4.02
  -4   9   0    3.65    3.54
   3  -9   0   27.30    7.36
  -3   9   0   23.18    4.28
  -3   9   0   39.19    6.44
   2  -9   0   41.26    7.18
  -2   9   0   40.51    7.53
  -2   9   0   49.17    6.59
  -2   9   0   37.10    6.37
   1  -9   0   26.99    6.03
   1  -9   0   21.21    5.61
  -1   9   0   32.66    7.27
  -1   9   0   33.00    6.34
   0  -9   0   17.70    6.04
   0   9   0   19.51    6.22
   0   9   0   23.09    7.38
  -1  -9   0   16.16    6.55
  -1  -9   0   11.35    4.78
   1   9   0    3.57    6.29
   1   9   0   11.38    7.25
  -2  -9   0   -1.45    6.36
   2   9   0    6.67    7.37
   2   9   0  -12.54    7.19
  -3  -9   0    1.72    7.33
   3   9   0   11.75    8.82
   3   9   0   21.24   11.06
  11 -10   0    3.43   12.93
  11 -10   0   -5.07   10.28
 -11  10   0    5.93    8.26
  10 -10   0   23.40   10.73
  10 -10   0    7.84    8.13
 -10  10   0    7.79    6.90
   9 -10   0    9.85    9.08
   9 -10   0    5.39    7.02
  -9  10   0    5.13    6.09
   8 -10   0    5.11    6.39
   8 -10   0   16.90    8.74
  -8  10   0    4.40    4.62
  -8  10   0   13.35    5.60
   7 -10   0   12.68    8.32
   7 -10   0    0.12    5.51
  -7  10   0   10.28    4.81
  -7  10   0   16.94    6.48
   6 -10   0   25.18    5.78
   6 -10   0    1.91    7.82
  -6  10   0   15.04    5.27
  -6  10   0   20.69    6.21
   5 -10   0   16.36    7.93
  -5  10   0   15.35    4.19
  -5  10   0   22.57    5.65
   4 -10   0   19.36    7.79
   4 -10   0   15.05    5.96
  -4  10   0   15.00    4.65
  -4  10   0   10.94    4.73
   3 -10   0   21.03    7.00
  -3  10   0   16.83    4.95
  -3  10   0   13.65    5.17
   2 -10   0    6.99    5.83
  -2  10   0    6.87    5.45
  -2  10   0   13.46    5.40
   1 -10   0    6.49    5.70
   1 -10   0    3.94    5.79
  -1  10   0    7.08    5.68
  -1  10   0   11.95    6.79
   0 -10   0    7.28    6.29
   0 -10   0    1.42    6.51
   0  10   0   -4.69    7.71
   0  10   0    9.73    6.60
  -1 -10   0   15.12    7.59
   1  10   0    6.16    7.71
   1  10   0   20.99    9.66
  -2 -10   0    3.51    8.51
   2  10   0   11.86    9.16
   2  10   0   17.43    9.95
  10 -11   0   -9.21   11.87
  10 -11   0   -9.05    7.79
 -10  11   0    1.05    8.12
   9 -11   0    7.90   11.07
  -9  11   0   18.40    8.01
   8 -11   0    7.44    6.81
   8 -11   0   -2.37   10.36
  -8  11   0    3.62    6.43
   7 -11   0    1.05    6.95
   7 -11   0   -0.75    9.21
  -7  11   0   -0.15    6.21
   6 -11   0    8.49    6.79
   6 -11   0    0.89    9.23
  -6  11   0  -10.08    5.81
   5 -11   0   12.66    9.17
   5 -11   0   12.28    7.09
  -5  11   0    5.37    5.89
   4 -11   0   15.38    8.92
   4 -11   0    4.11    7.16
  -4  11   0    2.84    6.42
  -4  11   0    9.52    6.03
   3 -11   0   21.67    9.54
   3 -11   0   12.33    6.58
  -3  11   0   18.49    6.16
  -3  11   0   12.18    6.66
   2 -11   0   11.35    6.96
   2 -11   0    9.34    7.06
  -2  11   0   12.27    7.64
   1 -11   0    1.84    7.28
   1 -11   0    4.27    6.96
  -1  11   0   18.96    8.99
  -1  11   0    2.80    8.36
   0 -11   0  -10.65    8.19
   0  11   0    1.62    8.42
   0  11   0   11.25    9.33
   1  11   0  -13.75   11.24
   9 -12   0   10.33    8.56
   9 -12   0   -2.60   12.02
  -9  12   0  -10.33    8.64
   8 -12   0   15.44   12.39
   8 -12   0   -4.48    8.04
  -8  12   0    7.25    7.90
   7 -12   0   -1.60   10.43
   7 -12   0    5.27    9.82
  -7  12   0   -3.83    7.43
   6 -12   0   12.23   11.04
   6 -12   0    2.92    8.23
  -6  12   0   -0.60    7.10
   5 -12   0    5.52   10.71
   5 -12   0    2.31    8.03
  -5  12   0    9.20    6.35
   4 -12   0    2.11    7.09
   4 -12   0  -10.58   10.24
  -4  12   0   -3.44    7.26
  -4  12   0   -3.86    7.32
   3 -12   0   16.58   11.11
   3 -12   0    4.75    8.16
  -3  12   0   -6.51    8.50
  -3  12   0    3.21    7.79
   2 -12   0  -13.01    8.24
   2 -12   0   13.80   13.15
  -2  12   0    3.34    9.88
   1 -12   0    4.23    9.50
  -1  12   0  -10.03    8.53
  -1  12   0   18.60   12.63
   8 -13   0  -13.16    9.06
   7 -13   0   -3.43   13.56
   7 -13   0   -6.57    8.87
  -7  13   0    5.01   10.58
   6 -13   0    0.28    8.96
   6 -13   0   26.14   12.78
  -6  13   0   -2.73    9.41
   5 -13   0    2.44   12.97
   5 -13   0   -1.80    9.37
  -5  13   0   15.69    8.51
   4 -13   0   11.34   10.43
   4 -13   0   17.40   13.27
  -4  13   0   -5.21    9.57
  -4  13   0   26.95    9.53
   3 -13   1   23.72   14.44
   3 -13   1    0.56   10.79
   3 -13   1   21.62    9.69
   3 -13   1   -0.32    9.74
  -4  13  -1    8.78    8.04
   4 -13   1   -2.10    9.94
   4 -13   1   -9.30   13.30
   4 -13   1    5.79   10.01
  -5  13  -1    2.24    8.57
   5 -13   1   18.76   16.16
   5 -13   1   44.15   13.43
  -6  13  -1   -4.02    7.88
   6 -13   1   -9.49   12.78
   6 -13   1    2.83    8.23
  -7  13  -1   13.13    8.69
   7 -13   1   -5.55   13.22
   7 -13   1    6.86    8.47
  -8  13  -1   18.43    9.71
   8 -13   1   17.61   10.13
   8 -13   1   37.68   14.43
  -1  12  -1  -10.26    9.61
   1 -12   1   11.87    9.40
  -2  12  -1   -2.65    8.61
  -2  12  -1    4.63    8.76
   2 -12   1   -1.32    8.00
   2 -12   1   10.18   12.90
   2 -12   1   -1.57    8.12
  -3  12  -1   13.11    7.64
  -3  12  -1   -2.15    6.73
   3 -12   1  -14.12   10.99
   3 -12   1   12.22    8.12
  -4  12  -1    4.62    6.63
   4 -12   1    6.46    8.36
   4 -12   1   14.42    8.41
   4 -12   1    3.43   11.00
  -5  12  -1    6.01    6.08
  -5  12  -1   12.25    7.56
   5 -12   1    4.84    9.60
   5 -12   1   24.46   10.89
   5 -12   1   24.37    8.82
  -6  12  -1   13.68    5.88
  -6  12  -1    6.36    6.50
   6 -12   1   16.34    8.27
   6 -12   1   -1.96   11.64
  -7  12  -1   -4.08    5.42
  -7  12  -1   16.63    6.67
   7 -12   1   -0.41   11.38
   7 -12   1   10.19    8.16
  -8  12  -1    0.40    6.90
  -8  12  -1   -6.90    7.64
   8 -12   1   -7.34   11.84
   8 -12   1   13.82    8.35
   9 -12   1   18.81    9.39
   9 -12   1   10.60   12.56
   1  11  -1   -7.75    9.73
   1  11  -1    0.91   10.19
   0  11  -1    5.44    8.53
   0  11  -1   -3.10    8.84
   0 -11   1    3.59    7.91
  -1  11  -1   20.69    7.11
  -1  11  -1   -0.84    7.26
   1 -11   1    0.26    7.27
   1 -11   1   22.43    7.34
  -2  11  -1   23.77    7.83
   2 -11   1   23.35    7.47
   2 -11   1   17.72    6.62
  -3  11  -1    3.42    5.04
  -3  11  -1    6.29    6.23
  -3  11  -1    5.28    6.68
   3 -11   1    1.22    6.58
   3 -11   1   -0.89    9.81
  -4  11  -1    1.86    5.17
  -4  11  -1    0.13    5.45
   4 -11   1    4.92    8.59
  -5  11  -1   22.09    6.34
  -5  11  -1   17.71    5.89
   5 -11   1   36.03    9.41
   5 -11   1   15.04    6.26
  -6  11  -1   13.44    5.09
  -6  11  -1   22.98    6.43
   6 -11   1   21.03    9.42
  -7  11  -1   -1.95    6.18
  -7  11  -1    4.83    5.02
   7 -11   1    1.64    8.73
  -8  11  -1   13.87    6.77
  -8  11  -1   -2.06    4.99
   8 -11   1    1.62    9.32
  -9  11  -1    6.22    9.95
  -9  11  -1    3.32    7.94
   9 -11   1   15.20    9.96
   9 -11   1    7.12   12.78
 -10  11  -1   13.55    9.08
  10 -11   1   -0.42    8.59
  10 -11   1    1.84   12.23
   2  10  -1   14.98   10.17
   2  10  -1    9.89   10.65
  -2 -10   1   11.51    7.92
   1  10  -1   15.70    7.89
   1  10  -1   -3.97    8.83
  -1 -10   1   -8.08    6.63
   0  10  -1    4.81    7.76
   0  10  -1   -3.08    6.41
   0 -10   1   -2.19    5.91
   0 -10   1   -0.83    6.54
  -1  10  -1   12.07    6.36
  -1  10  -1   21.16    6.27
   1 -10   1   17.12    6.26
   1 -10   1    2.04    5.69
  -2  10  -1    1.24    3.78
  -2  10  -1    4.50    4.82
  -2  10  -1   11.50    5.50
  -2  10  -1   10.01    5.61
  -3  10  -1   30.13    5.86
  -3  10  -1   17.75    5.56
  -3  10  -1   24.52    4.85
   3 -10   1    5.50    7.75
  -4  10  -1   28.19    5.26
  -4  10  -1   32.58    6.17
  -4  10  -1   32.00    6.68
   4 -10   1   32.00    7.90
  -5  10  -1    2.03    3.80
  -5  10  -1    5.32    4.66
   5 -10   1    5.33    7.55
   5 -10   1   -4.70    4.85
  -6  10  -1   13.50    5.15
  -6  10  -1    2.66    3.89
   6 -10   1    9.40    7.95
  -7  10  -1   16.87    5.60
  -7  10  -1   -0.88    4.22
   7 -10   1    7.18    7.16
  -8  10  -1    6.78    6.05
  -8  10  -1   12.86    5.19
   8 -10   1   15.72    9.27
  -9  10  -1   -2.48    6.10
  -9  10  -1    1.01    7.16
   9 -10   1   10.99   10.15
 -10  10  -1    3.32    8.18
  10 -10   1   -1.54    9.57
  10 -10   1    5.65    8.27
 -11  10  -1   24.84    9.66
  11 -10   1    1.57    8.83
   4   9  -1   16.56   11.00
   3   9  -1   25.76   10.80
  -3  -9   1   10.48    7.54
   2   9  -1   -7.19    6.84
   2   9  -1    8.20    6.76
  -2  -9   1    3.17    6.11
   1   9  -1   27.03    7.37
   1   9  -1   15.52    6.34
  -1  -9   1   12.36    5.79
  -1  -9   1   14.31    5.19
   0   9  -1   20.58    5.67
   0   9  -1   17.97    5.72
   0  -9   1   28.58    6.24
  -1   9  -1   11.37    4.80
  -1   9  -1   14.50    5.57
   1  -9   1   11.21    4.98
  -2   9  -1    0.41    3.73
  -2   9  -1    3.02    4.24
  -2   9  -1   -2.35    4.07
  -2   9  -1    1.17    2.99
  -3   9  -1   63.62    6.85
  -3   9  -1   54.93    5.81
  -3   9  -1   69.27    6.72
   3  -9   1   59.19    9.68
  -4   9  -1   39.10    5.47
  -4   9  -1   52.95    5.75
  -4   9  -1   57.05    6.39
   4  -9   1   59.48    9.17
  -5   9  -1   23.84    4.97
  -5   9  -1   34.10    5.53
   5  -9   1   38.95    7.92
   5  -9   1   25.66    4.38
  -6   9  -1    6.02    4.08
  -6   9  -1    3.03    4.03
   6  -9   1    4.28    2.82
   6  -9   1   -0.52    6.48
  -7   9  -1   -4.27    4.11
  -7   9  -1    4.67    4.08
   7  -9   1   14.43    8.83
  -8   9  -1   10.94    4.61
  -8   9  -1    8.54    5.82
   8  -9   1    4.68    8.41
  -9   9  -1   10.56    5.23
  -9   9  -1   18.69    6.97
   9  -9   1   26.95   10.19
 -10   9  -1   -2.51    6.19
  10  -9   1    5.87    9.10
  10  -9   1   14.68    8.74
 -11   9  -1    2.98    8.27
  11  -9   1   -2.42    8.99
  11  -9   1   14.24   10.14
   5   8  -1   15.31   11.97
   5   8  -1    3.37   10.28
   4   8  -1   11.57    9.14
  -4  -8   1    3.90    6.53
   3   8  -1   44.84    8.78
  -3  -8   1   47.26    7.96
   2   8  -1   11.10    6.14
   2   8  -1   18.57    6.14
  -2  -8   1   14.19    5.61
   1   8  -1   30.77    6.27
   1   8  -1   33.62    6.47
  -1  -8   1   27.14    5.93
  -1  -8   1   29.97    4.79
   0   8  -1    9.93    4.27
   0   8  -1    0.62    2.86
   0   8  -1   -0.55    4.26
   0  -8   1   -4.62    3.89
  -1   8  -1   68.21    5.85
  -1   8  -1   67.10    6.24
  -1   8  -1   73.59    7.20
  -2   8  -1  125.85    8.13
  -2   8  -1  124.18    8.39
  -2   8  -1  121.27    9.32
  -3   8  -1    5.59    2.90
  -3   8  -1    0.48    3.04
  -3   8  -1    4.36    3.43
   3  -8   1    8.06    5.00
  -4   8  -1   27.27    4.09
  -4   8  -1   30.17    4.42
   4  -8   1   30.13    7.01
  -5   8  -1   32.75    4.85
  -5   8  -1   28.87    4.65
   5  -8   1   29.09    7.55
   5  -8   1   24.74    4.20
  -6   8  -1   58.68    6.17
  -6   8  -1   44.76    6.03
   6  -8   1   46.11    6.97
  -7   8  -1   56.37    6.20
  -7   8  -1   42.95    6.31
   7  -8   1   46.09    9.91
  -8   8  -1    8.22    4.72
  -8   8  -1    1.50    5.12
   8  -8   1   -8.05    7.15
  -9   8  -1    0.76    4.25
  -9   8  -1   -8.79    5.54
   9  -8   1    5.15    7.97
 -10   8  -1   10.53    5.75
  10  -8   1   16.63    7.12
  10  -8   1    0.29    9.90
 -11   8  -1   -6.95    6.53
  11  -8   1   12.13    8.40
   6   7  -1   26.03   10.63
   6   7  -1   -6.27   11.12
  -6  -7   1    8.17    7.89
  -6  -7   1   -4.78   18.09
   5   7  -1    5.03    8.99
   5   7  -1   48.53   18.60
  -5  -7   1    6.92    6.53
   4   7  -1   24.62    8.20
   4   7  -1    8.46    7.60
  -4  -7   1   17.80    6.02
   3   7  -1   27.57    6.39
   3   7  -1   43.05    8.48
  -3  -7   1   30.42    5.78
   2   7  -1    7.66    4.64
   2   7  -1   13.78    5.15
  -2  -7   1    5.76    4.48
  -2  -7   1    7.47    3.18
   1   7  -1   13.96    4.18
   1   7  -1   15.26    4.03
  -1  -7   1   11.79    3.72
  -1  -7   1   11.79    3.66
   0   7  -1   17.15    3.48
   0   7  -1   23.11    3.80
   0   7  -1   17.54    4.17
   0  -7   1   12.57    3.35
  -1   7  -1  119.59    7.27
  -1   7  -1  121.76    8.56
  -1   7  -1  106.30    7.22
  -1   7  -1  113.49    7.52
  -2   7  -1   92.29    6.76
  -2   7  -1  101.53    6.80
  -2   7  -1   96.40    6.83
  -2   7  -1   97.00    6.57
  -3   7  -1  116.90    7.56
  -3   7  -1  134.00    7.38
  -3   7  -1  137.95    7.76
   3  -7   1  116.53    8.88
  -4   7  -1   38.62    4.75
  -4   7  -1   32.70    3.52
   4  -7   1   40.35    6.45
  -5   7  -1   -0.36    2.72
  -5   7  -1    2.10    2.31
   5  -7   1   -0.92    1.92
   5  -7   1    3.04    4.73
   5  -7   1   -0.02    1.79
  -6   7  -1   82.80    7.24
  -6   7  -1   83.47    6.89
   6  -7   1  109.38    9.41
  -7   7  -1   76.79    6.77
  -7   7  -1   69.36    6.82
   7  -7   1   72.90    9.64
  -8   7  -1   12.82    3.96
  -8   7  -1   13.76    4.37
   8  -7   1   14.31    6.64
  -9   7  -1    9.87    4.60
  -9   7  -1    7.09    4.76
   9  -7   1    9.75    7.66
 -10   7  -1   -2.36    6.11
  10  -7   1   -2.75    6.52
  10  -7   1   -5.40    7.69
 -11   7  -1   21.34    8.75
  11  -7   1   -6.92    7.71
  -7  -6   1   24.77   20.86
   6   6  -1   18.94   10.69
   6   6  -1   14.51   10.21
   5   6  -1   36.51    8.63
   5   6  -1   34.40    9.74
  -5  -6   1   31.45    7.73
   4   6  -1   44.96    8.76
   4   6  -1   45.03    8.38
  -4  -6   1   39.50    6.14
   3   6  -1   49.56    6.42
   3   6  -1   47.77    7.42
  -3  -6   1   58.09    6.01
  -3  -6   1   51.91    3.30
   2   6  -1   27.43    5.62
   2   6  -1   34.60    5.48
  -2  -6   1   23.74    3.97
  -2  -6   1   23.55    5.21
   1   6  -1   80.39    6.47
   1   6  -1   70.30    6.72
   1   6  -1   86.76    5.00
  -1  -6   1   82.96    6.61
   0   6  -1  341.41   15.33
   0   6  -1  361.38   13.06
   0   6  -1  347.66   14.20
   0  -6   1  349.12   14.36
  -1   6  -1  107.35    6.34
  -1   6  -1  106.80    6.53
  -1   6  -1  101.79    6.26
  -1   6  -1  109.44    7.34
  -2   6  -1  127.91    7.07
  -2   6  -1  127.10    6.99
  -2   6  -1  124.72    7.04
  -2   6  -1  123.48    7.04
  -3   6  -1   39.71    3.70
  -3   6  -1   36.14    4.48
  -3   6  -1   36.40    3.47
   3  -6   1   32.78    5.33
  -4   6  -1  153.94    8.08
  -4   6  -1  155.25    8.46
   4  -6   1  140.96    5.91
   4  -6   1  145.49    9.77
   4  -6   1  154.58    6.52
  -5   6  -1  240.36   11.74
  -5   6  -1  257.76   11.76
   5  -6   1  260.06   13.79
  -6   6  -1   -1.37    3.10
  -6   6  -1   -0.25    2.42
  -7   6  -1   25.24    4.34
  -7   6  -1   19.57    4.37
   7  -6   1   30.95    7.05
  -8   6  -1    5.80    3.64
  -8   6  -1   16.18    4.29
   8  -6   1    6.54    5.88
  -9   6  -1   16.47    4.51
  -9   6  -1    6.23    4.64
   9  -6   1   13.27    6.95
 -10   6  -1   -1.79    6.34
  10  -6   1    9.50    7.86
  10  -6   1   16.92    6.87
 -11   6  -1   -4.88    6.58
  11  -6   1    3.55   10.06
  11  -6   1   -0.91    7.41
   7   5  -1   -2.00    9.11
  -7  -5   1   11.05   18.64
  -7  -5   1    0.39    7.08
   6   5  -1    6.11    6.61
   6   5  -1    3.49    6.94
  -6  -5   1    6.06    6.47
   5   5  -1   32.67    7.70
   5   5  -1   38.07    8.65
  -5  -5   1   22.45    5.88
   4   5  -1   10.70    5.22
   4   5  -1   16.27    4.93
  -4  -5   1   23.08    5.32
   3   5  -1   13.43    4.24
   3   5  -1   11.64    4.25
  -3  -5   1    9.93    1.69
  -3  -5   1   10.08    1.76
  -3  -5   1   11.27    4.20
   2   5  -1    5.27    3.05
   2   5  -1    3.40    3.58
  -2  -5   1   -2.76    1.60
  -2  -5   1    1.36    2.47
  -2  -5   1   -2.38    1.97
   1   5  -1   80.65    6.76
   1   5  -1   80.40    5.88
   1   5  -1   84.63    4.56
  -1  -5   1   78.66    5.71
   0   5  -1  144.88    7.08
   0   5  -1  137.37    8.40
   0   5  -1  138.50    6.60
   0   5  -1  141.51    7.43
   0  -5   1  140.53    7.54
  -1   5  -1  438.23   15.09
  -1   5  -1  434.44   15.86
  -1   5  -1  466.01   15.72
  -1   5  -1  451.68   15.17
  -2   5  -1   80.70    5.28
  -2   5  -1   77.23    4.75
  -2   5  -1   78.69    4.86
  -2   5  -1   80.57    5.16
   2  -5   1   95.05    6.98
  -3   5  -1   -0.30    1.24
  -3   5  -1   -2.81    1.54
  -3   5  -1    0.62    1.52
   3  -5   1    2.86    2.88
   3  -5   1   -2.11    1.36
  -4   5  -1  678.46   22.35
  -4   5  -1  674.92   21.88
   4  -5   1  697.44   24.88
  -5   5  -1  154.60    8.45
  -5   5  -1  164.13    8.81
   5  -5   1  169.74   10.75
  -6   5  -1   59.15    5.23
  -6   5  -1   67.18    6.57
   6  -5   1   57.84    7.30
  -7   5  -1    4.73    3.33
   7  -5   1   13.19    5.92
  -8   5  -1    3.69    3.10
  -8   5  -1    2.75    3.96
   8  -5   1    7.44    6.99
  -9   5  -1    8.64    5.54
   9  -5   1    2.69    5.18
   9  -5   1   -0.07    7.28
 -10   5  -1   10.61    5.50
  10  -5   1   -1.66    6.36
  10  -5   1    2.53    8.36
 -11   5  -1   -3.68    7.01
  11  -5   1  -13.10    8.99
  -8  -4   1   22.97   12.07
  -8  -4   1  145.81   46.04
   7   4  -1    3.76    7.24
  -7  -4   1   19.19   11.73
  -7  -4   1   14.18    7.38
   6   4  -1   47.80    9.07
   6   4  -1   35.37    7.46
  -6  -4   1   39.34    6.71
   5   4  -1   83.74    8.49
   5   4  -1   76.83    8.59
  -5  -4   1   70.44    7.83
   4   4  -1  161.11   10.97
   4   4  -1  142.55   10.21
  -4  -4   1  130.48    9.32
   3   4  -1    1.79    2.83
  -3  -4   1    2.59    2.67
   2   4  -1  404.67   15.95
   2   4  -1  422.36   11.99
   2   4  -1  400.60   16.74
  -2  -4   1  402.05   11.82
  -2  -4   1  412.14   15.39
   1   4  -1  225.17   10.71
   1   4  -1  234.05    7.96
   1   4  -1  215.42    9.73
  -1  -4   1  206.49    7.50
  -1  -4   1  214.91    9.44
   0   4  -1  543.40   17.17
   0   4  -1  567.46   18.91
   0   4  -1  546.75   17.84
   0   4  -1  577.24   16.88
  -1   4  -1  289.77   10.59
  -1   4  -1  277.05   10.18
  -1   4  -1  274.29    9.93
  -1   4  -1  293.20   10.68
  -2   4  -1  189.13    8.08
  -2   4  -1  182.79    6.96
  -2   4  -1  182.26    7.53
   2  -4   1  184.44    9.37
   2  -4   1  190.96    6.95
  -3   4  -1  755.95   23.41
  -3   4  -1  755.80   23.02
   3  -4   1  809.46   20.63
   3  -4   1  784.07   20.12
   3  -4   1  791.85   25.88
  -4   4  -1  142.13    7.29
  -4   4  -1  136.26    7.15
   4  -4   1  138.64    8.92
  -5   4  -1  258.58   11.62
  -5   4  -1  274.50   11.44
   5  -4   1  286.62   13.93
  -6   4  -1   53.38    2.58
  -6   4  -1   47.24    4.95
  -6   4  -1   51.33    4.45
  -6   4  -1   49.96    2.68
   6  -4   1   46.57    6.82
  -7   4  -1   31.13    4.41
  -7   4  -1   33.44    3.37
  -7   4  -1   33.68    4.84
  -7   4  -1   37.23    3.74
   7  -4   1   37.01    6.78
  -8   4  -1   53.53    5.68
  -8   4  -1   48.16    6.43
  -8   4  -1   56.71    5.39
   8  -4   1   58.92    8.84
  -9   4  -1   10.84    5.24
   9  -4   1    8.26    4.85
   9  -4   1    5.25    7.05
 -10   4  -1   19.46    7.01
  10  -4   1    7.18    6.00
  10  -4   1    1.45    9.17
 -11   4  -1   -3.46    8.48
  11  -4   1   -6.90   10.04
   9   3  -1    2.18   12.19
  -9  -3   1   11.43   10.39
   8   3  -1    4.07   10.09
  -8  -3   1   -0.04    7.20
  -8  -3   1   24.82   12.39
   7   3  -1   13.39    6.53
  -7  -3   1   17.78   10.03
  -7  -3   1    5.10    5.86
   6   3  -1   10.06    5.12
  -6  -3   1   16.69    5.43
   5   3  -1    7.60    4.40
   5   3  -1    5.72    3.92
  -5  -3   1    4.97    3.03
  -4  -3   1   30.39    4.85
   3   3  -1   27.31    3.87
   3   3  -1   20.91    4.20
  -3  -3   1   26.50    3.65
   2   3  -1  181.96    5.89
   2   3  -1  188.59    9.61
   2   3  -1  181.05    8.85
  -2  -3   1  188.38    5.84
  -2  -3   1  194.65    8.73
   1   3  -1  442.49   12.16
   1   3  -1  424.13   14.33
   1   3  -1  419.13   14.94
  -1  -3   1  410.58   11.90
  -1  -3   1  377.77   13.42
   0   3  -1  136.67    5.44
   0   3  -1  148.24    6.75
   0   3  -1  145.15    5.72
   0   3  -1  141.10    6.21
   0  -3   1  134.35    5.32
   0  -3   1  130.14    5.40
  -1   3  -1    0.44    0.88
  -1   3  -1   -1.47    0.86
  -1   3  -1   -0.24    0.98
  -1   3  -1   -1.29    0.77
   1  -3   1   -0.37    0.89
   1  -3   1   -0.64    1.41
   1  -3   1    0.73    1.05
  -2   3  -1 2501.00   64.27
  -2   3  -1 2603.23   63.88
   2  -3   1 2552.45   66.49
   2  -3   1 2479.21   62.07
   2  -3   1 2460.13   64.62
   2  -3   1 2478.88   62.60
  -3   3  -1  206.83    8.44
  -3   3  -1  203.72    8.33
   3  -3   1  231.85   10.47
  -4   3  -1  376.45   12.99
  -4   3  -1  359.06   13.53
  -4   3  -1  370.54    9.87
  -4   3  -1  363.33   10.03
   4  -3   1  382.92   15.49
  -5   3  -1   48.78    3.07
  -5   3  -1   52.50    4.80
  -5   3  -1   48.41    4.06
  -5   3  -1   49.90    3.27
   5  -3   1   54.79    5.82
  -6   3  -1   11.02    3.04
  -6   3  -1   13.38    2.76
  -6   3  -1   14.30    2.95
   6  -3   1   11.79    5.06
  -7   3  -1   27.63    3.68
  -7   3  -1   19.96    4.26
   7  -3   1   21.71    6.90
  -8   3  -1   23.30    5.24
  -8   3  -1   22.74    4.94
   8  -3   1   25.58    6.72
   8  -3   1   19.62    4.12
  -9   3  -1    0.30    4.61
  -9   3  -1    6.86    5.80
   9  -3   1   -1.08    4.38
   9  -3   1    7.27    6.72
 -10   3  -1   -7.01    5.86
  10  -3   1   -3.04    7.94
 -11   3  -1    0.47    8.32
  11  -3   1    3.60   10.30
   9   2  -1   37.47   11.26
  -9  -2   1   13.36    8.99
  -9  -2   1    1.40   14.45
   8   2  -1   16.65    8.08
  -8  -2   1   42.42   12.07
  -8  -2   1   29.83    6.49
   7   2  -1   60.69    8.83
  -7  -2   1   56.79   10.68
  -7  -2   1   60.80    8.55
   6   2  -1  206.08   12.50
   6   2  -1  193.32   12.45
  -6  -2   1  189.74   11.33
   5   2  -1   40.74    5.53
  -5  -2   1   33.23    5.78
   4   2  -1  219.62   11.52
   4   2  -1  220.16   11.05
  -4  -2   1  216.33   10.70
   3   2  -1  329.92   13.46
   3   2  -1  332.98   13.76
  -3  -2   1  330.37   12.91
   2   2  -1  611.82   15.44
   2   2  -1  597.68   19.65
   2   2  -1  604.87   19.55
  -2  -2   1  597.69   15.46
  -2  -2   1  609.03   18.70
   1   2  -1 1522.05   40.42
   1   2  -1 1491.46   40.84
   1   2  -1 1462.91   39.56
   1   2  -1 1521.10   38.06
  -1  -2   1 1558.88   38.09
  -1  -2   1 1567.52   39.79
   0   2  -1    3.94    1.39
   0   2  -1    2.41    1.22
   0   2  -1    4.18    1.08
   0   2  -1    3.14    0.90
   0  -2   1    4.83    0.91
   0  -2   1    3.39    1.21
   0  -2   1    2.17    1.20
   0  -2   1    3.67    1.00
  -1   2  -1 3053.79   77.67
  -1   2  -1 3004.50   75.86
   1  -2   1 3107.01   76.22
   1  -2   1 3225.80   78.96
   1  -2   1 3054.39   76.48
   1  -2   1 3108.92   76.45
   1  -2   1 2951.10   77.97
   1  -2   1 3081.62   76.40
  -2   2  -1  330.80   11.33
  -2   2  -1  312.36    9.56
  -2   2  -1  326.40    9.72
   2  -2   1  241.20    8.93
   2  -2   1  265.45   10.73
   2  -2   1  258.80    9.20
   2  -2   1  266.13    7.32
  -3   2  -1 1375.81   36.73
  -3   2  -1 1383.74   35.04
  -3   2  -1 1432.33   37.83
   3  -2   1 1422.11   35.03
   3  -2   1 1332.18   39.37
  -4   2  -1  505.85   15.44
  -4   2  -1  545.07   18.09
  -4   2  -1  553.68   16.58
   4  -2   1  547.53   15.68
   4  -2   1  547.61   19.99
  -5   2  -1    7.85    1.68
  -5   2  -1    5.14    2.39
   5  -2   1    4.45    1.64
   5  -2   1    1.01    3.37
  -6   2  -1  170.50   14.09
  -6   2  -1  190.31    8.22
   6  -2   1  186.93    8.65
  -7   2  -1   83.15    7.17
   7  -2   1   79.11    9.59
   7  -2   1   96.69    6.86
   7  -2   1   90.79    6.59
  -8   2  -1   34.35    5.89
  -8   2  -1   33.21    5.71
   8  -2   1   23.85    7.65
  -9   2  -1   18.14    7.03
   9  -2   1   16.62    7.50
 -10   2  -1   22.50    7.76
  10  -2   1    9.09    8.55
 -11   2  -1    9.48    8.53
  11  -2   1   -3.73   11.13
  10   1  -1   -0.77   11.79
 -10  -1   1   22.94   16.16
 -10  -1   1    9.27    8.46
   9   1  -1   -0.21    7.74
  -9  -1   1   11.95   11.13
  -9  -1   1   -3.04    7.33
   8   1  -1   19.34    7.44
  -8  -1   1    5.49    8.46
  -8  -1   1   15.00    6.65
   7   1  -1    5.51    5.34
  -7  -1   1   -3.66    4.52
  -7  -1   1    3.99    6.57
   6   1  -1    5.04    4.88
  -6  -1   1    3.71    3.20
   5   1  -1   34.88    5.10
   5   1  -1   37.24    4.87
  -5  -1   1   40.62    4.98
   4   1  -1  163.66    4.77
   4   1  -1  159.84    9.44
   4   1  -1  167.93    4.92
   4   1  -1  155.43    8.45
  -4  -1   1  174.40    8.78
   3   1  -1  243.84    6.71
   3   1  -1  241.52    6.78
   3   1  -1  239.15   10.65
   3   1  -1  241.02   10.12
  -3  -1   1  255.02   10.12
   2   1  -1  126.82    6.20
   2   1  -1  127.91    3.75
   2   1  -1  126.81    6.07
  -2  -1   1  117.23    3.84
  -2  -1   1  116.56    5.47
   1   1  -1   -2.53    0.76
   1   1  -1   -2.68    0.78
   1   1  -1   -2.47    0.90
   1   1  -1   -2.70    0.34
  -1  -1   1   -3.30    0.87
  -1  -1   1   -3.15    0.64
  -1  -1   1   -1.69    0.87
  -1  -1   1   -2.46    0.34
   0  -1   1  451.69   12.81
  -1   1  -1   89.97    3.32
  -1   1  -1   89.66    4.10
  -1   1  -1   69.99    3.40
  -1   1  -1   91.14    2.89
   1  -1   1   81.46    3.20
   1  -1   1   79.75    4.41
   1  -1   1   79.47    3.15
  -2   1  -1  481.28   14.29
  -2   1  -1  459.50   13.22
  -2   1  -1  451.18   13.00
  -2   1  -1  443.89   15.10
   2  -1   1  480.01   13.12
   2  -1   1  479.58   15.37
   2  -1   1  494.30   13.31
   2  -1   1  487.65   14.24
  -3   1  -1  240.88    9.59
  -3   1  -1  240.01    8.45
  -3   1  -1  242.70    8.01
   3  -1   1  239.64    8.45
   3  -1   1  253.28   10.94
   3  -1   1  241.79    7.92
  -4   1  -1   15.51    2.64
  -4   1  -1   13.17    1.87
   4  -1   1   12.74    2.27
   4  -1   1   14.55    3.53
  -5   1  -1  198.67    7.51
  -5   1  -1  197.98   10.14
   5  -1   1  194.16    9.03
   5  -1   1  183.67   10.83
  -6   1  -1   44.31    5.17
   6  -1   1   50.64    5.11
   6  -1   1   63.98    7.02
   6  -1   1   58.67    4.48
  -7   1  -1   41.50    5.54
   7  -1   1   32.89    6.42
   7  -1   1   29.09    4.06
  -8   1  -1   -2.65    4.51
   8  -1   1    0.19    5.53
   8  -1   1    3.76    4.62
  -9   1  -1    4.39    5.97
  -9   1  -1   18.61    8.45
   9  -1   1   10.70    7.69
 -10   1  -1   -2.57    7.04
 -10   1  -1  -11.83   10.82
  10  -1   1    7.84   10.01
  10   0  -1    2.25    8.81
 -10   0   1    3.40    8.22
 -10   0   1    3.64   12.52
   9   0  -1   22.26    7.83
  -9   0   1   26.64   10.54
  -9   0   1   23.78    6.88
   8   0  -1   83.43    9.38
  -8   0   1   99.80   10.04
  -8   0   1   70.62   10.11
   7   0  -1   54.78    3.63
   7   0  -1   49.93    7.16
  -7   0   1   52.86    6.09
   6   0  -1   71.30    4.04
   6   0  -1   74.68    7.81
   6   0  -1   66.12    3.67
  -6   0   1   75.90    6.57
  -6   0   1   69.40    7.49
   5   0  -1  313.90   10.32
   5   0  -1  311.45   12.82
   5   0  -1  314.46    9.70
  -5   0   1  315.46   13.55
   4   0  -1  326.19   12.26
   4   0  -1  324.40    9.76
   4   0  -1  326.29   10.38
   4   0  -1  323.34   13.91
  -4   0   1  323.23   12.71
   3   0  -1 1432.38   36.57
   3   0  -1 1437.72   39.89
   3   0  -1 1443.27   35.97
   3   0  -1 1385.90   38.00
  -3   0   1 1377.61   38.40
   2   0  -1 1035.45   28.66
   2   0  -1 1119.42   27.87
   2   0  -1 1071.90   29.67
  -2   0   1 1101.49   27.90
  -2   0   1 1078.21   28.80
  -2   0   1 1065.36   29.62
  -2   0   1 1060.14   29.81
  -2   0   1 1070.50   28.63
  -1   0   1  753.51   19.49
  -1   0  -1  134.49    4.86
  -1   0  -1  137.50    5.28
   1   0   1  111.40    5.59
   1   0   1  124.69    3.98
   1   0   1  123.75    4.84
  -2   0  -1 2405.88   62.79
  -2   0  -1 2495.92   61.16
  -2   0  -1 2477.36   63.35
   2   0   1 2401.43   62.79
   2   0   1 2634.07   61.66
   2   0   1 2400.62   64.11
  -3   0  -1  146.04    7.21
   3   0   1  148.69    4.94
   3   0   1  148.45    6.94
   3   0   1  147.10    8.31
  -4   0  -1  467.30   13.19
   4   0   1  462.28   18.41
   4   0   1  476.45   16.64
   4   0   1  488.32   13.24
  -5   0  -1  260.10   12.48
   5   0   1  259.15    8.68
   5   0   1  245.47   13.35
   5   0   1  257.08    8.06
   5   0   1  263.38   11.76
  -6   0  -1  137.37    9.21
   6   0   1  133.92   10.75
   6   0   1  131.92    5.43
   6   0   1  135.38    4.98
   6   0   1  130.36    8.72
  -7   0  -1   58.67    6.96
   7   0   1   68.24    7.42
   7   0   1   71.84    8.91
  -8   0  -1   26.38    6.78
   8   0   1   26.71    6.61
   8   0   1   22.62    7.72
  -9   0  -1   42.27    8.50
   9   0   1   40.00   10.51
 -10   0  -1  -15.29   14.02
 -10   0  -1    5.60    9.17
  10   0   1   18.40   11.74
  11  -1  -1   27.17   12.74
 -11   1   1  -12.35   10.03
  10  -1  -1   25.31    9.33
 -10   1   1   16.77    7.04
 -10   1   1    7.96    9.56
   9  -1  -1   -0.30    7.03
  -9   1   1    7.42    5.28
  -9   1   1   -9.64    7.18
   8  -1  -1   13.37    5.46
   8  -1  -1    2.56    2.88
  -8   1   1    2.74    6.03
  -8   1   1    0.78    4.03
   7  -1  -1   16.84    5.72
   7  -1  -1   18.87    3.12
  -7   1   1   16.91    4.25
  -7   1   1   15.15    4.34
   6  -1  -1   83.80    5.35
  -6   1   1   87.58    6.91
   5  -1  -1  135.34    8.81
   5  -1  -1  141.83    6.64
  -5   1   1  140.11    7.98
  -5   1   1  129.76    7.77
   4  -1  -1   72.71    6.04
   4  -1  -1   79.31    4.60
  -4   1   1   76.60    4.96
  -4   1   1   71.84    4.96
   3  -1  -1    0.69    1.11
   3  -1  -1   -0.85    1.63
   3  -1  -1   -0.12    0.92
  -3   1   1   -0.01    1.03
  -3   1   1    0.00    1.24
  -3   1   1   -0.81    1.03
   2  -1  -1  188.20    6.92
   2  -1  -1  190.91    7.20
   2  -1  -1  195.20    6.61
   2  -1  -1  187.94    6.59
   2  -1  -1  189.45    7.52
  -2   1   1  222.41    7.35
  -2   1   1  192.86    7.50
  -2   1   1  209.06    6.68
   1  -1  -1   85.14    3.35
   1  -1  -1   84.17    3.91
  -1   1   1   82.52    3.82
  -1   1   1   86.66    3.79
  -1   1   1   92.82    3.35
  -1   1   1   83.01    3.22
   0  -1  -1   17.02    1.42
   0  -1  -1   19.30    1.64
   0  -1  -1   18.64    1.72
   0   1   1   18.84    1.74
   0   1   1   19.67    1.50
   0   1   1   19.29    1.59
   0   1   1   17.63    1.23
  -1  -1  -1  455.46   14.12
  -1  -1  -1  499.84   14.19
  -1  -1  -1  465.61   14.03
  -1  -1  -1  488.66   12.01
   1   1   1  430.02   13.81
   1   1   1  434.99   13.65
   1   1   1  437.27   14.02
   1   1   1  440.78   12.12
  -2  -1  -1   25.46    1.10
  -2  -1  -1   26.03    2.94
   2   1   1   29.35    3.31
   2   1   1   22.88    2.79
   2   1   1   27.21    1.27
  -3  -1  -1  732.22   23.09
   3   1   1  711.53   22.90
   3   1   1  712.46   23.68
  -4  -1  -1   64.72    5.40
   4   1   1   65.87    5.63
   4   1   1   51.02    5.69
  -5  -1  -1  124.94    8.44
   5   1   1  130.13    8.60
  -6  -1  -1   21.51    4.78
   6   1   1   27.50    5.83
   6   1   1   30.92    5.51
  -7  -1  -1    5.14    4.38
   7   1   1    4.37    5.16
   7   1   1   -4.08    5.22
  -8  -1  -1   -1.17    5.44
   8   1   1    3.24    6.24
   8   1   1   20.51    8.62
  -9  -1  -1   12.28   13.74
  -9  -1  -1    0.71   13.93
   9   1   1   10.95    8.71
  11  -2  -1   -4.72    8.64
 -11   2   1   -2.67    9.24
 -10   2   1   24.50    7.99
 -10   2   1   26.19    7.91
   9  -2  -1   28.05    8.37
   9  -2  -1   11.70    4.28
  -9   2   1   28.06    6.48
  -9   2   1   16.92    5.18
   8  -2  -1   10.54    6.25
   8  -2  -1   13.71    3.34
  -8   2   1    9.94    4.75
  -8   2   1   13.58    3.90
   7  -2  -1   78.83    8.06
   7  -2  -1   87.91    6.33
  -7   2   1   93.87    7.10
  -7   2   1   90.76    7.49
   6  -2  -1   56.93    6.32
   6  -2  -1   49.85    4.78
  -6   2   1   45.95    5.02
  -6   2   1   58.42    5.70
   5  -2  -1  570.78   21.58
   5  -2  -1  573.14   19.34
  -5   2   1  568.33   18.53
  -5   2   1  588.65   19.95
   4  -2  -1  474.99   17.70
   4  -2  -1  482.53   16.75
  -4   2   1  494.94   16.60
  -4   2   1  495.03   15.03
  -4   2   1  495.02   14.31
   3  -2  -1   92.57    3.93
   3  -2  -1   97.58    5.66
  -3   2   1   86.17    3.82
  -3   2   1   87.36    4.50
  -3   2   1   90.75    4.90
   2  -2  -1  271.55    8.37
   2  -2  -1  240.65    8.99
   2  -2  -1  256.77    9.53
   2  -2  -1  239.36    8.99
  -2   2   1  311.72    9.69
  -2   2   1  302.21    8.38
  -2   2   1  300.71    9.93
  -2   2   1  310.34    9.63
   1  -2  -1  164.60    6.13
   1  -2  -1  165.70    5.46
   1  -2  -1  159.51    6.17
   1  -2  -1  160.68    6.86
   1  -2  -1  159.92    6.08
   1  -2  -1  160.71    6.13
  -1   2   1  194.37    6.35
  -1   2   1  197.01    6.56
   0  -2  -1 2157.24   56.75
   0  -2  -1 2251.38   56.67
   0  -2  -1 2298.53   56.13
   0  -2  -1 2265.91   55.92
   0  -2  -1 2116.32   57.33
   0   2   1 2194.70   57.50
   0   2   1 2285.12   57.01
   0   2   1 2291.42   56.08
  -1  -2  -1  689.34   19.32
  -1  -2  -1  728.80   21.66
  -1  -2  -1  742.76   18.91
   1   2   1  707.01   21.95
   1   2   1  743.20   21.08
  -2  -2  -1  483.44   16.89
  -2  -2  -1  486.49   12.74
  -2  -2  -1  504.31   12.74
   2   2   1  495.90   17.38
   2   2   1  509.54   16.97
  -3  -2  -1  414.54   16.06
   3   2   1  412.78   16.32
   3   2   1  432.64   16.49
  -4  -2  -1  204.30   10.95
   4   2   1  211.83   11.28
   4   2   1  207.17   11.61
  -5  -2  -1  191.94   11.26
   5   2   1  187.08   11.21
   5   2   1  174.09   11.32
  -6  -2  -1   19.35    5.11
   6   2   1   33.25    6.71
   6   2   1   16.06    5.58
  -7  -2  -1   45.48    7.39
   7   2   1   44.77    9.27
   7   2   1   39.76    9.43
  -8  -2  -1   56.75    9.88
   8   2   1   29.60    9.93
   8   2   1   40.89    9.38
  -9  -2  -1  -23.74   16.60
  -9  -2  -1   21.84    8.57
   9   2   1    9.30   11.52
   9   2   1   28.57    9.80
  11  -3  -1   16.71   10.25
 -11   3   1    0.43    8.57
  10  -3  -1    3.19    7.29
 -10   3   1   12.93    5.61
   9  -3  -1   -5.54    6.64
   9  -3  -1   -1.45    4.28
  -9   3   1    3.61    4.69
  -9   3   1    3.49    5.17
   8  -3  -1   15.84    6.40
   8  -3  -1   15.18    4.19
  -8   3   1   19.03    4.30
  -8   3   1   12.71    4.65
   7  -3  -1   50.57    7.38
   7  -3  -1   58.22    5.60
  -7   3   1   46.91    5.03
  -7   3   1   48.69    5.15
   6  -3  -1   35.28    4.70
   6  -3  -1   27.59    5.24
  -6   3   1   25.40    3.87
  -6   3   1   31.31    3.81
  -6   3   1   30.72    3.52
   5  -3  -1   -1.59    2.12
   5  -3  -1   -1.14    2.84
  -5   3   1    3.64    2.06
  -5   3   1   -0.12    1.45
  -5   3   1    0.37    1.58
  -5   3   1    0.52    1.37
   4  -3  -1  173.33    5.97
   4  -3  -1  165.88    8.88
  -4   3   1  174.42    7.83
  -4   3   1  167.67    8.10
  -4   3   1  172.86    5.85
   3  -3  -1  244.83    9.80
   3  -3  -1  223.98    7.11
  -3   3   1  210.50    6.87
  -3   3   1  206.20    8.62
  -3   3   1  207.05    8.65
   2  -3  -1   53.20    3.05
   2  -3  -1   45.09    3.65
  -2   3   1   50.40    3.50
  -2   3   1   53.80    3.92
  -2   3   1   48.66    3.34
  -2   3   1   50.36    2.98
   1  -3  -1  246.05    8.03
  -1   3   1  234.98    8.95
  -1   3   1  246.13    9.03
  -1   3   1  240.25    8.71
  -1   3   1  233.87    7.96
   0  -3  -1   18.71    1.95
   0  -3  -1   19.57    2.09
   0  -3  -1   20.55    2.38
   0   3   1   18.76    2.37
   0   3   1   17.96    2.07
   0   3   1   23.46    2.94
  -1  -3  -1  794.71   21.50
  -1  -3  -1  735.65   23.68
  -1  -3  -1  774.88   20.74
   1   3   1  772.61   24.72
   1   3   1  772.45   23.03
  -2  -3  -1  139.94    4.42
  -2  -3  -1  130.03    7.58
  -2  -3  -1  116.50    4.81
   2   3   1  131.26    7.36
   2   3   1  122.91    7.95
  -3  -3  -1  142.85    8.62
   3   3   1  131.04    8.38
   3   3   1  144.19    9.04
  -4  -3  -1   67.10    6.38
   4   3   1   80.62    7.51
  -5  -3  -1    3.74    3.19
   5   3   1   -4.37    3.60
   5   3   1    3.98    4.31
  -6  -3  -1    0.99    4.79
   6   3   1    7.59    5.58
   6   3   1    2.78    4.80
  -7  -3  -1    2.25    5.52
   7   3   1    9.11    7.68
   7   3   1    7.55    7.25
   8   3   1   -2.84   11.04
   8   3   1   12.68    9.42
 -11   4   1   27.87    8.48
  10  -4  -1   19.86    8.32
  10  -4  -1   19.92    5.84
 -10   4   1   27.42    5.49
   9  -4  -1   39.83    7.41
   9  -4  -1   19.65    7.89
  -9   4   1   23.22    4.89
   8  -4  -1    4.95    5.89
   8  -4  -1   -7.32    3.78
  -8   4   1    1.03    3.85
  -8   4   1    6.85    3.14
   7  -4  -1   77.16    6.52
   7  -4  -1   71.38    8.18
  -7   4   1   78.35    6.64
  -7   4   1   71.69    4.65
  -7   4   1   74.11    4.24
   6  -4  -1  244.22   12.56
   6  -4  -1  270.08   13.97
  -6   4   1  244.76   11.06
  -6   4   1  250.48    7.78
  -6   4   1  250.63   12.11
   5  -4  -1   10.50    3.78
  -5   4   1   15.62    1.36
  -5   4   1   11.98    1.38
  -5   4   1   15.49    2.75
  -5   4   1   11.46    2.42
   4  -4  -1  135.70    8.20
   4  -4  -1  134.15    5.10
  -4   4   1  139.04    7.30
  -4   4   1  141.12    4.83
  -4   4   1  144.32    7.34
   3  -4  -1  100.75    6.45
   3  -4  -1  104.56    4.87
  -3   4   1  115.56    4.77
  -3   4   1  112.08    6.05
  -3   4   1  114.69    6.14
   2  -4  -1  844.35   25.00
  -2   4   1  815.44   23.64
  -2   4   1  815.93   24.23
  -2   4   1  813.23   24.33
   1  -4  -1  738.32   23.18
  -1   4   1  749.59   21.16
  -1   4   1  710.52   22.50
  -1   4   1  723.06   21.64
  -1   4   1  733.14   22.25
   0  -4  -1   18.01    2.67
   0   4   1   25.70    3.80
   0   4   1   18.48    3.16
   0   4   1   18.11    3.30
  -1  -4  -1  147.02    6.20
  -1  -4  -1  154.73    8.39
  -1  -4  -1  152.42    6.89
   1   4   1  167.37    8.03
   1   4   1  171.47    9.28
  -2  -4  -1  120.56    4.66
  -2  -4  -1  111.61    7.42
  -2  -4  -1  126.92    5.06
   2   4   1  123.99    8.41
   2   4   1  115.53    7.43
  -3  -4  -1  218.25   11.60
   3   4   1  212.24   11.39
   3   4   1  219.04   12.62
  -4  -4  -1   88.13    8.02
   4   4   1   80.70    8.33
   4   4   1   83.41    8.00
  -5  -4  -1   12.04    4.30
   5   4   1   14.42    5.89
   5   4   1   19.49    5.55
  -6  -4  -1   36.33    7.30
   6   4   1   41.47    8.70
   6   4   1   45.47    9.35
  -7  -4  -1   17.42    7.10
   7   4   1    7.36    8.07
   7   4   1   22.40   10.06
  -8  -4  -1   -3.25    9.48
   8   4   1   13.53   10.92
   8   4   1   -2.41   10.90
  11  -5  -1    3.52    7.03
  11  -5  -1   -6.69    8.72
  10  -5  -1    8.66    7.17
  10  -5  -1    1.18    5.83
 -10   5   1    2.47    5.73
   9  -5  -1   18.76    6.63
   9  -5  -1    9.79    5.07
  -9   5   1   19.36    5.89
   8  -5  -1   10.00    4.48
   8  -5  -1    9.90    6.06
  -8   5   1    6.95    3.72
   7  -5  -1    0.60    4.09
   7  -5  -1    2.92    5.52
  -7   5   1    1.55    2.83
   6  -5  -1   39.52    6.27
  -6   5   1   25.29    3.84
   5  -5  -1  158.96    9.88
   5  -5  -1  166.51    5.53
  -5   5   1  168.00    8.96
  -5   5   1  163.85    8.84
  -5   5   1  167.92    5.25
   4  -5  -1    6.87    2.83
  -4   5   1    3.87    2.10
  -4   5   1    7.01    2.50
  -4   5   1    6.63    1.62
   3  -5  -1  135.69    7.77
  -3   5   1  134.76    7.43
  -3   5   1  147.18    6.63
  -3   5   1  139.80    7.49
   2  -5  -1   40.89    4.66
  -2   5   1   43.29    3.97
  -2   5   1   43.08    4.00
  -2   5   1   43.77    4.09
   1  -5  -1  218.65   10.55
  -1   5   1  208.45    8.77
  -1   5   1  216.45   10.28
  -1   5   1  212.18    9.94
   0  -5  -1   79.27    5.51
   0  -5  -1   79.82    6.07
   0   5   1   66.46    4.90
   0   5   1   72.02    6.41
  -1  -5  -1  105.36    5.89
  -1  -5  -1  107.03    7.07
   1   5   1   98.01    7.49
   1   5   1  101.99    6.79
  -2  -5  -1   63.62    3.90
  -2  -5  -1   49.45    3.52
  -2  -5  -1   58.49    6.20
   2   5   1   59.39    6.54
   2   5   1   48.63    5.36
  -3  -5  -1   -0.63    3.69
   3   5   1    9.60    4.11
   3   5   1    2.20    3.81
  -4  -5  -1    6.16    5.11
   4   5   1    8.19    5.02
   4   5   1   -3.46    5.09
  -5  -5  -1    5.36    4.96
   5   5   1    9.96    7.00
   5   5   1   15.75    6.73
  -6  -5  -1    8.06    5.45
   6   5   1   15.04    8.20
  -7  -5  -1   -5.05    9.50
   7   5   1   16.58   14.80
   7   5   1   -1.80   10.68
  12  -6  -1  -11.99   11.56
 -12   6   1   -1.20    9.13
  11  -6  -1    5.61    9.03
  11  -6  -1    8.08    7.68
 -11   6   1    9.49   12.04
  10  -6  -1    9.83    7.62
  10  -6  -1    6.85    6.51
 -10   6   1    3.40    5.55
   9  -6  -1    0.36    5.49
   9  -6  -1   13.77    6.73
  -9   6   1    3.04    4.67
   8  -6  -1   58.56    9.25
   8  -6  -1   46.25    7.17
  -8   6   1   63.61    6.65
   7  -6  -1   29.25    6.91
   7  -6  -1   23.61    5.28
  -7   6   1   22.75    5.06
   6  -6  -1    3.51    3.81
  -6   6   1    5.68    2.96
  -6   6   1    2.53    2.34
   5  -6  -1   30.41    5.67
   5  -6  -1   39.45    3.37
  -5   6   1   33.83    4.39
  -5   6   1   43.59    4.82
  -5   6   1   39.59    2.83
   4  -6  -1   40.84    5.39
  -4   6   1   42.61    3.59
  -4   6   1   34.00    4.12
  -4   6   1   43.10    4.68
   3  -6  -1  370.69   15.60
  -3   6   1  377.32   14.79
  -3   6   1  372.31   14.94
  -3   6   1  392.59   14.02
  -2   6   1   45.23    4.71
  -2   6   1   42.44    3.95
  -2   6   1   50.62    5.01
  -2   6   1   40.49    4.57
   1  -6  -1   56.87    5.67
  -1   6   1   71.27    5.14
  -1   6   1   69.87    6.46
  -1   6   1   72.06    5.61
   0  -6  -1    5.19    3.14
   0  -6  -1    3.17    2.61
   0   6   1    0.61    3.15
   0   6   1    1.27    2.67
  -1  -6  -1  150.06    9.64
  -1  -6  -1  141.34    7.76
   1   6   1  149.08    8.77
   1   6   1  147.29   10.14
  -2  -6  -1  122.59    9.59
  -2  -6  -1  131.01    6.24
   2   6   1  133.35   10.66
   2   6   1  116.63    9.02
   3   6   1    0.00    4.56
  -4  -6  -1   26.72    6.19
   4   6   1   35.19    7.67
   4   6   1   21.25    7.15
  -5  -6  -1   20.09    6.37
   5   6   1   12.71    8.05
   5   6   1   19.61    7.88
  -6  -6  -1   17.00    8.90
   6   6   1   30.90   10.03
   6   6   1   26.15   11.38
  12  -7  -1   11.25   11.19
  12  -7  -1    4.85    8.84
 -12   7   1    0.60    8.60
  11  -7  -1   -4.90    7.43
  11  -7  -1    0.34    8.57
  10  -7  -1    2.93    7.08
  10  -7  -1   14.04    8.08
 -10   7   1    3.92    6.49
   9  -7  -1    0.85    5.51
   9  -7  -1    9.48    7.40
  -9   7   1    0.67    4.34
   8  -7  -1    4.03    6.46
   8  -7  -1   14.55    5.89
  -8   7   1    3.90    4.35
   7  -7  -1   75.93    8.50
   7  -7  -1   63.22    8.78
  -7   7   1   72.27    6.33
  -7   7   1   76.64    7.69
   6  -7  -1   11.52    2.04
   6  -7  -1   16.70    4.97
  -6   7   1   15.88    4.12
  -6   7   1   11.22    3.41
   5  -7  -1   70.28    7.24
  -5   7   1   71.94    5.86
  -5   7   1   71.78    4.62
  -5   7   1   66.36    5.98
   4  -7  -1   -2.12    3.75
  -4   7   1   -0.01    2.33
  -4   7   1   -2.05    2.31
   3  -7  -1   44.73    5.69
  -3   7   1   33.81    4.28
  -3   7   1   39.05    4.94
  -3   7   1   35.38    4.89
   2  -7  -1   35.84    5.33
  -2   7   1   45.44    5.19
  -2   7   1   47.19    5.00
  -2   7   1   39.66    4.21
   1  -7  -1   44.94    6.14
  -1   7   1   56.78    5.25
  -1   7   1   42.10    4.71
   0  -7  -1   59.60    6.05
   0  -7  -1   62.49    6.76
   0   7   1   66.82    5.67
   0   7   1   61.99    6.89
  -1  -7  -1   11.95    4.70
  -1  -7  -1    5.69    3.22
   1   7   1   10.05    4.05
   1   7   1   10.17    5.00
  -2  -7  -1    2.28    2.87
  -2  -7  -1    3.16    4.05
   2   7   1   12.01    5.48
   2   7   1   -6.84    5.34
  -3  -7  -1   21.18    5.64
   3   7   1   12.28    7.06
   3   7   1   30.42    7.08
  -4  -7  -1   15.04    6.42
   4   7   1   -7.58    7.72
   4   7   1    3.48    6.95
  -5  -7  -1   18.38    8.94
   5   7   1    6.06   11.14
   5   7   1    0.35    8.56
  11  -8  -1    6.93   11.16
  11  -8  -1    6.20    7.38
 -11   8   1   -3.52    6.76
  10  -8  -1   -2.46    8.23
  10  -8  -1    8.17    6.87
 -10   8   1   12.85    7.31
   9  -8  -1   18.03    8.58
   8  -8  -1    9.92    5.02
   8  -8  -1    9.08    6.22
  -8   8   1    5.91    4.44
   7  -8  -1   19.10    5.61
   7  -8  -1   21.23    7.06
  -7   8   1   15.99    4.49
   6  -8  -1   10.59    4.49
  -6   8   1    5.36    3.10
  -6   8   1    8.40    2.34
  -6   8   1   14.94    4.53
   5  -8  -1   68.68    7.94
   5  -8  -1   47.99    7.51
  -5   8   1   66.65    5.34
  -5   8   1   55.85    5.93
  -5   8   1   54.31    6.35
   4  -8  -1   44.49    6.83
   4  -8  -1   37.95    7.22
  -4   8   1   38.59    4.93
  -4   8   1   49.19    4.94
  -4   8   1   47.27    5.50
   3  -8  -1    2.59    3.91
   3  -8  -1    3.97    4.67
  -3   8   1    4.28    3.50
  -3   8   1    2.62    3.31
   2  -8  -1   17.60    4.73
  -2   8   1   15.46    3.19
  -2   8   1   14.00    4.53
  -2   8   1   14.44    3.49
   1  -8  -1   38.52    6.12
  -1   8   1   40.46    6.49
  -1   8   1   50.37    5.59
  -1   8   1   36.62    5.70
   0  -8  -1   80.39    7.73
   0  -8  -1   88.86    7.87
   0   8   1   91.63    9.80
   0   8   1   91.08    7.61
  -1  -8  -1   13.30    4.25
  -1  -8  -1   15.73    4.58
   1   8   1   15.01    6.57
   1   8   1   17.93    5.22
  -2  -8  -1   23.74    6.69
   2   8   1   20.81    8.01
   2   8   1   18.85    6.24
  -3  -8  -1   12.81    7.58
   3   8   1   -0.84    8.15
   3   8   1   25.02    8.70
  -4  -8  -1   24.74    9.10
   4   8   1   21.31   10.15
   4   8   1   10.45   10.24
  11  -9  -1   -6.28    7.71
  11  -9  -1    0.46   12.23
 -11   9   1   -0.21    8.28
  10  -9  -1    4.57    7.78
  10  -9  -1   -2.10   10.41
 -10   9   1    0.45    6.21
   9  -9  -1   -0.43    8.27
   9  -9  -1    2.46    6.19
  -9   9   1    4.66    6.21
   8  -9  -1   -1.80    7.38
   8  -9  -1   18.43    6.74
  -8   9   1   10.43    4.73
   7  -9  -1   12.11    5.49
   7  -9  -1   20.79    8.12
  -7   9   1   17.59    4.92
   6  -9  -1    4.91    6.04
   6  -9  -1    5.73    5.84
  -6   9   1    0.08    2.98
  -6   9   1   -3.71    3.75
   5  -9  -1   16.58    5.30
  -5   9   1   10.66    3.59
  -5   9   1    8.37    3.93
   4  -9  -1   36.45    6.88
  -4   9   1   24.56    5.27
  -4   9   1   46.41    5.35
   3  -9  -1   17.63    6.20
  -3   9   1   23.13    5.02
  -3   9   1   12.41    5.00
  -2   9   1   34.38    5.81
  -2   9   1   27.08    6.49
   1  -9  -1    3.78    5.12
   1  -9  -1    4.80    5.07
  -1   9   1   11.96    4.88
  -1   9   1   22.04    6.73
   0  -9  -1    1.39    5.59
   0   9   1   -7.80    5.21
   0   9   1   -7.25    6.63
  -1  -9  -1   24.38    7.13
   1   9   1   42.72   10.01
   1   9   1   28.68    7.26
  -2  -9  -1   19.62    7.33
   2   9   1   13.32    7.61
   2   9   1   25.32    8.85
  -3  -9  -1    8.53    9.29
   3   9   1   18.93    9.57
   3   9   1    8.49   12.38
  11 -10  -1  -15.18   14.84
 -11  10   1   -7.15    7.69
  10 -10  -1    4.58   10.43
  10 -10  -1    2.86    7.57
 -10  10   1   -1.37   10.89
   9 -10  -1  -16.48    9.01
   9 -10  -1   -1.35    7.33
  -9  10   1   -4.59    5.90
   8 -10  -1   -4.34    8.65
   8 -10  -1   -6.27    6.04
  -8  10   1   -3.60    5.36
   7 -10  -1    0.91    8.10
   7 -10  -1    7.75    7.08
  -7  10   1    9.39    4.85
   6 -10  -1   -3.14    7.34
   6 -10  -1   14.15    6.00
  -6  10   1    1.32    6.39
  -6  10   1   11.51    5.00
   5 -10  -1  -12.65    7.14
   5 -10  -1    6.46    5.60
  -5  10   1    2.41    4.96
  -5  10   1   -4.97    4.22
   4 -10  -1    1.46    7.13
   4 -10  -1    0.31    5.90
  -4  10   1   10.60    5.15
  -4  10   1    1.48    4.90
   3 -10  -1   -3.28    7.19
   3 -10  -1   -5.30    5.69
  -3  10   1   -8.81    5.34
  -3  10   1    8.06    4.69
   2 -10  -1   23.79    7.30
  -2  10   1   29.14    6.80
  -2  10   1   26.88    6.45
   1 -10  -1   14.04    6.45
   1 -10  -1   12.27    6.57
  -1  10   1   11.26    7.07
   0 -10  -1    1.59    5.87
   0 -10  -1    9.86    6.99
   0  10   1    9.89    6.86
   0  10   1   20.17    8.52
  -1 -10  -1   -6.20    7.37
   1  10   1    2.64    7.79
   1  10   1    5.10    9.52
  -2 -10  -1    0.28    8.75
   2  10   1    6.61   11.18
   2  10   1    5.70    9.66
  10 -11  -1   -0.55   12.60
  10 -11  -1   33.14   13.40
 -10  11   1   16.37    7.89
   9 -11  -1   -6.78   10.83
   9 -11  -1   -1.25    7.61
  -9  11   1    3.88    6.79
   8 -11  -1    5.10    7.60
   8 -11  -1   16.79   10.80
  -8  11   1    8.32    7.02
   7 -11  -1   -1.29    6.52
   7 -11  -1   -3.73    9.37
  -7  11   1    7.38    7.24
   6 -11  -1   13.62    6.43
   6 -11  -1    2.15    9.16
  -6  11   1   16.31    6.23
   5 -11  -1    4.71    7.64
   5 -11  -1    3.88    8.57
  -5  11   1    2.86    5.13
  -5  11   1    7.92    5.50
   4 -11  -1    5.14    6.00
   4 -11  -1   -5.43    8.97
  -4  11   1   15.48    5.74
  -4  11   1    5.80    6.73
   3 -11  -1   19.41   10.21
   3 -11  -1  -11.78    7.04
  -3  11   1   13.75    7.10
  -3  11   1    3.45    6.69
   2 -11  -1    3.56    6.97
   2 -11  -1    3.94    7.59
  -2  11   1    9.77    7.69
  -2  11   1    5.53    7.94
   1 -11  -1    6.57    7.84
   1 -11  -1   16.60    8.21
  -1  11   1   21.00    8.34
  -1  11   1   26.78    7.50
   0 -11  -1   10.63    8.01
   0  11   1    6.33    8.55
   0  11   1    0.08   12.08
   9 -12  -1  -11.97   12.78
   9 -12  -1    4.60    8.56
  -9  12   1   22.45    9.92
   8 -12  -1    6.12   11.63
   8 -12  -1   10.85    8.64
  -8  12   1   -2.82   11.61
   7 -12  -1   13.99   10.97
  -7  12   1    1.32    7.83
   6 -12  -1   16.14   13.18
  -6  12   1    3.59    7.47
   5 -12  -1    8.04    7.38
   5 -12  -1    6.75   10.59
  -5  12   1    1.27   12.17
  -5  12   1    8.89    7.17
   4 -12  -1   -2.56   11.29
   4 -12  -1    6.55    8.29
  -4  12   1   24.16    8.15
  -4  12   1    9.98    7.54
   3 -12  -1   14.91    8.69
  -3  12   1   15.67    9.25
  -3  12   1    9.90    7.96
   2 -12  -1    5.33    8.71
   2 -12  -1   42.66   15.27
  -2  12   1   24.41    9.95
   7 -13  -1   -0.71    9.07
  -7  13   1   -8.37    9.00
   6 -13  -1   -8.19   10.27
  -6  13   1   17.47    9.58
   5 -13  -1    2.09   10.13
  -5  13   1   -0.24    8.50
   3 -13   2  -18.07   10.92
   3 -13   2   -6.96    9.63
   3 -13   2    8.61   14.07
   3 -13   2    4.04    8.77
  -4  13  -2    0.87    7.85
   4 -13   2  -12.11    9.20
   4 -13   2    5.07    9.54
   4 -13   2   -0.94   13.82
  -5  13  -2   -0.41    8.99
   5 -13   2    1.23   12.66
  -6  13  -2   13.53    6.50
  -6  13  -2    1.41    8.13
   6 -13   2   24.42   13.45
  -7  13  -2   11.53    8.96
  -7  13  -2    6.12    7.25
   7 -13   2  -12.99   13.24
  -8  13  -2   18.10    8.29
  -8  13  -2   -9.41   13.98
   8 -13   2   24.10   14.28
   0 -12   2   -1.34   11.51
  -1  12  -2  -12.63    8.95
   1 -12   2    2.38    8.78
   1 -12   2    6.43   10.82
   1 -12   2    1.74    8.80
  -2  12  -2   41.36   10.79
   2 -12   2    4.64    9.10
   2 -12   2   19.76    7.99
   2 -12   2   13.42    8.65
  -3  12  -2   -3.04    6.30
  -3  12  -2   -0.14    5.98
   3 -12   2   -0.60   11.15
   3 -12   2   18.09    8.48
  -4  12  -2   13.25    6.39
  -4  12  -2   -3.62    5.23
   4 -12   2   -4.76    7.55
   4 -12   2    6.52   10.84
  -5  12  -2    5.60    6.27
  -5  12  -2   -7.34    6.24
   5 -12   2    4.78   10.77
  -6  12  -2    9.70    6.78
  -6  12  -2    0.22    5.49
   6 -12   2   14.90   10.72
  -7  12  -2    1.91    6.40
  -7  12  -2   -7.11    7.09
  -8  12  -2    6.08    6.84
  -8  12  -2    1.05    6.63
   8 -12   2   12.49   11.74
  -9  12  -2    7.11    6.64
  -9  12  -2   -3.42    8.62
   9 -12   2   15.12   12.41
   1  11  -2   27.24   10.72
   1  11  -2   17.50   10.88
  -1 -11   2   -3.45    9.46
  -1 -11   2   12.37    8.14
   0  11  -2   -2.60    8.74
   0  11  -2   26.87    9.29
   0 -11   2   10.29    9.61
   0 -11   2   11.98    8.31
   0 -11   2   14.04    7.64
  -1  11  -2   12.10    7.30
  -1  11  -2   26.76    8.07
   1 -11   2   13.62    7.14
   1 -11   2   22.28    7.15
   1 -11   2   11.22    8.70
  -2  11  -2   11.67    6.60
  -2  11  -2   -4.79    4.91
   2 -11   2    4.41    7.61
   2 -11   2   -1.99    6.16
  -3  11  -2    5.79    5.74
  -3  11  -2    2.34    4.77
   3 -11   2   12.74    7.26
   3 -11   2    0.57    9.20
  -4  11  -2   31.18    6.19
  -4  11  -2   18.27    4.55
   4 -11   2   14.60    7.01
   4 -11   2   27.79   10.28
  -5  11  -2    8.93    5.58
   5 -11   2   -1.19    5.77
  -6  11  -2    8.91    5.22
  -6  11  -2   -6.33    5.45
   6 -11   2    2.13    8.76
  -7  11  -2   -1.00    4.79
   7 -11   2  -11.93    8.79
  -8  11  -2    4.49    5.07
  -8  11  -2   13.74    7.10
   8 -11   2    9.81   10.68
  -9  11  -2    5.73    7.80
  -9  11  -2    4.20   12.14
   9 -11   2   -1.25   10.84
 -10  11  -2  -10.34    7.75
 -10  11  -2    3.57    6.80
  -3 -10   2  -10.80   13.99
  -3 -10   2   -0.50    8.28
   2  10  -2   14.06    9.24
   2  10  -2   33.60   16.64
  -2 -10   2   13.05    7.47
   1  10  -2    1.62    7.73
   1  10  -2   12.30    8.28
  -1 -10   2   21.57    7.92
   0  10  -2   22.61    8.02
   0  10  -2   12.27    7.28
   0 -10   2   16.94    6.35
  -1  10  -2   11.63    4.68
  -1  10  -2   24.41    7.34
   1 -10   2    8.89    5.65
  -2  10  -2   -0.04    4.31
  -2  10  -2    0.72    4.96
  -2  10  -2   -0.26    5.14
  -2  10  -2    3.59    5.24
  -3  10  -2   10.78    5.02
  -3  10  -2    7.43    4.00
   3 -10   2   18.63    6.03
   3 -10   2   10.60    7.93
  -4  10  -2    4.57    4.38
  -4  10  -2    9.84    3.78
   4 -10   2   13.90    7.37
   4 -10   2    9.49    5.00
  -5  10  -2   22.56    5.59
   5 -10   2   24.73    5.37
  -6  10  -2   22.61    5.68
  -6  10  -2   18.63    5.91
   6 -10   2   28.45    8.02
  -7  10  -2    1.21    5.30
  -7  10  -2    7.25    5.12
   7 -10   2   -5.69    8.17
  -8  10  -2    0.36    4.98
  -8  10  -2    9.46    5.91
   8 -10   2   -3.87    7.84
  -9  10  -2    9.56    6.66
  -9  10  -2    3.10    5.46
   9 -10   2   20.16    9.37
 -10  10  -2   -4.14    6.14
 -10  10  -2    2.22    8.00
  10 -10   2   -4.54   10.94
 -11  10  -2    5.21    8.43
  11 -10   2   -6.03   12.00
  11 -10   2   44.98   13.12
  -4  -9   2   -0.60    7.82
  -4  -9   2   27.63   16.46
   3   9  -2   14.03   10.81
   3   9  -2   -0.64    8.72
  -3  -9   2    9.71    7.27
   2   9  -2    6.85    6.53
   2   9  -2    4.30    8.03
  -2  -9   2    2.88    5.95
   1   9  -2   -0.98    5.99
   1   9  -2    5.29    5.91
  -1  -9   2    2.92    4.89
  -1  -9   2   -5.53    5.01
   0   9  -2   -0.78    4.75
   0   9  -2   -3.48    4.96
   0  -9   2    5.63    4.74
  -1   9  -2   -6.79    4.75
  -1   9  -2    8.62    3.49
  -1   9  -2   12.24    5.17
   1  -9   2    4.42    4.35
  -2   9  -2   64.74    5.89
  -2   9  -2   51.05    5.88
  -2   9  -2   45.28    6.82
  -2   9  -2   47.24    6.82
  -3   9  -2   15.19    4.22
  -3   9  -2   14.89    4.15
  -3   9  -2   14.77    4.19
   3  -9   2   24.63    7.56
   3  -9   2   18.89    4.92
  -4   9  -2    7.90    3.74
  -4   9  -2    6.21    3.54
   4  -9   2   12.16    5.80
   4  -9   2   14.06    4.35
  -5   9  -2    0.46    3.58
  -5   9  -2   -5.39    3.06
   5  -9   2   -6.77    6.30
   5  -9   2   -2.04    3.67
  -6   9  -2   10.69    3.81
  -6   9  -2   13.27    3.97
   6  -9   2   18.16    7.99
  -7   9  -2   34.40    5.96
  -7   9  -2   22.03    5.58
   7  -9   2   35.92    8.36
  -8   9  -2   14.07    5.95
  -8   9  -2    7.65    4.70
   8  -9   2   13.25    7.67
  -9   9  -2    2.65    5.24
  -9   9  -2   -6.73    4.61
   9  -9   2   -5.93    8.55
 -10   9  -2   10.28    7.12
 -10   9  -2    4.87    7.66
  10  -9   2    6.06   10.07
 -11   9  -2    1.27    8.79
  11  -9   2    4.13   12.46
  11  -9   2   21.26    9.45
   5   8  -2   16.13   11.83
  -5  -8   2   27.75   17.42
   4   8  -2   13.52    9.02
   4   8  -2    9.09    7.82
  -4  -8   2   -3.64    6.19
   3   8  -2   -3.71    6.80
   3   8  -2   10.42    6.69
  -3  -8   2    8.77    5.88
   2   8  -2   29.40    7.21
   2   8  -2   38.81    7.74
  -2  -8   2   37.03    5.64
  -2  -8   2   40.01    6.92
   1   8  -2   51.65    6.95
   1   8  -2   69.65    5.76
   1   8  -2   45.99    8.02
  -1  -8   2   68.82    6.99
   0   8  -2    5.11    3.94
   0   8  -2    4.97    3.60
   0  -8   2    8.25    3.79
  -1   8  -2   11.84    4.02
  -1   8  -2   18.49    3.41
  -1   8  -2   16.41    3.28
  -1   8  -2   16.49    3.76
  -2   8  -2    7.17    3.02
  -2   8  -2   11.85    3.59
  -3   8  -2   99.29    6.87
  -3   8  -2   85.41    6.91
  -3   8  -2   92.90    6.78
   3  -8   2  101.26    7.73
  -4   8  -2  104.10    7.38
  -4   8  -2  110.97    7.57
   4  -8   2  113.22    7.39
  -5   8  -2   29.83    4.73
  -5   8  -2   28.29    4.58
   5  -8   2   31.33    3.57
   5  -8   2   21.44    3.92
   5  -8   2   36.78    7.36
  -6   8  -2   62.86    6.33
  -6   8  -2   65.90    6.24
   6  -8   2   71.13    9.20
  -7   8  -2   21.75    4.80
  -7   8  -2   20.60    4.42
   7  -8   2   13.04    7.33
  -8   8  -2   21.77    4.78
  -8   8  -2   23.33    5.46
   8  -8   2   25.39    7.14
  -9   8  -2    2.38    4.35
  -9   8  -2   14.09    5.76
   9  -8   2    1.78    7.82
 -10   8  -2    6.93    5.96
 -10   8  -2   -0.43    6.47
  10  -8   2  -12.20    8.18
 -11   8  -2   -7.70    7.15
  11  -8   2   -5.87   10.11
  11  -8   2   23.02    8.68
   6   7  -2    5.17   12.12
  -6  -7   2   40.34   18.07
  -6  -7   2   -2.98    8.59
   5   7  -2    7.65    9.55
  -5  -7   2    3.23   12.13
  -5  -7   2   -5.35    5.96
   4   7  -2   11.19    7.61
   4   7  -2   18.51    7.69
  -4  -7   2   -0.98    4.95
   3   7  -2   -1.30    4.95
   3   7  -2   -3.60    6.43
   2   7  -2   14.50    4.37
   2   7  -2    7.53    5.02
   2   7  -2   11.96    2.56
  -2  -7   2   12.48    4.32
   1   7  -2   26.28    5.92
   1   7  -2   14.85    4.26
  -1  -7   2   25.31    4.71
   0   7  -2   89.44    6.05
   0   7  -2   92.12    7.84
   0   7  -2   81.74    7.32
   0  -7   2   96.15    6.87
  -1   7  -2   99.78    6.95
  -1   7  -2  100.01    7.67
  -1   7  -2  111.02    6.82
  -1   7  -2   91.30    6.32
  -2   7  -2   58.77    4.98
  -2   7  -2   51.46    5.42
  -2   7  -2   56.64    4.75
  -2   7  -2   56.22    4.98
  -3   7  -2    1.07    2.29
  -3   7  -2   -0.31    2.28
   3  -7   2    6.86    5.32
   3  -7   2    3.11    2.88
  -4   7  -2   32.34    4.38
   4  -7   2   53.75    4.62
   4  -7   2   41.78    6.24
  -5   7  -2  124.75    8.50
  -5   7  -2  138.93    8.44
   5  -7   2  132.60    4.92
   5  -7   2  134.27    4.61
  -6   7  -2   13.53    3.60
  -6   7  -2    7.55    3.69
   6  -7   2   18.63    5.72
  -7   7  -2    8.82    3.07
  -7   7  -2    8.04    3.42
   7  -7   2    7.69    5.50
  -8   7  -2    5.01    4.37
  -8   7  -2    5.65    3.81
   8  -7   2   15.99    6.94
  -9   7  -2    9.87    5.54
  -9   7  -2   -1.57    4.62
   9  -7   2    1.04    7.80
 -10   7  -2    2.76    4.70
 -10   7  -2    4.97    6.86
  10  -7   2   -1.32    9.60
 -11   7  -2    6.45    7.96
  11  -7   2   25.82    8.48
  11  -7   2    2.58   10.27
   7   6  -2   35.92   13.70
  -7  -6   2   -7.56   18.36
  -7  -6   2   13.25   14.98
   6   6  -2    5.01    8.21
  -6  -6   2   -6.52    7.00
  -6  -6   2  -10.74   14.54
   5   6  -2    6.32    8.08
   5   6  -2   18.76    6.52
  -5  -6   2    4.70    5.97
   4   6  -2   13.58    5.66
   4   6  -2    8.91    5.46
  -4  -6   2    1.51    3.87
   3   6  -2  117.38   10.50
   3   6  -2  117.45    9.12
  -3  -6   2  120.67    5.74
  -3  -6   2  125.49    8.97
   2   6  -2   67.93    7.74
   2   6  -2   52.22    4.11
   2   6  -2   48.11    6.44
  -2  -6   2   56.74    5.52
   1   6  -2   70.49    6.27
   1   6  -2   74.36    4.74
  -1  -6   2   66.18    5.76
   0   6  -2   14.01    3.57
   0   6  -2   17.57    3.00
   0   6  -2   13.13    3.21
   0  -6   2   13.03    2.98
  -1   6  -2  232.99   10.14
  -1   6  -2  225.67    9.67
  -1   6  -2  219.20   10.57
  -1   6  -2  236.29   11.04
  -2   6  -2  373.90   13.42
  -2   6  -2  356.69   14.06
  -2   6  -2  371.57   14.40
  -2   6  -2  373.56   13.75
  -3   6  -2   40.85    4.27
  -3   6  -2   40.32    3.58
   3  -6   2   31.46    5.61
   3  -6   2   36.02    3.89
  -4   6  -2  133.06    7.37
  -4   6  -2  133.49    7.90
   4  -6   2  141.76    9.60
   4  -6   2  147.99    5.94
   4  -6   2  139.05    5.45
  -5   6  -2   40.62    4.69
  -5   6  -2   36.39    4.33
   5  -6   2   35.98    6.42
  -6   6  -2   98.24    6.99
   6  -6   2   93.81   10.32
  -7   6  -2   61.82    5.61
  -7   6  -2   52.04    6.39
   7  -6   2   50.03    8.77
  -8   6  -2    0.02    3.69
  -8   6  -2    1.27    3.15
   8  -6   2    2.71    6.58
  -9   6  -2   19.81    5.37
  -9   6  -2   20.62    4.68
   9  -6   2   16.75    7.61
 -10   6  -2    0.63    4.92
 -10   6  -2    9.09    6.00
  10  -6   2  -11.24    7.93
  10  -6   2    6.75    6.96
 -11   6  -2    7.21    6.92
  11  -6   2    5.55    9.76
  11  -6   2    3.51    8.18
   7   5  -2   17.44    8.42
  -7  -5   2    8.15   14.02
   6   5  -2    9.59    6.91
  -6  -5   2    6.64    6.10
  -6  -5   2   24.13   10.08
   5   5  -2   11.02    6.11
   5   5  -2   16.59    6.41
  -5  -5   2    4.79    4.58
   4   5  -2   -4.64    3.92
   4   5  -2   11.25    5.46
  -4  -5   2   -1.79    3.52
   3   5  -2   18.66    4.91
   3   5  -2   20.42    4.62
  -3  -5   2   26.42    4.49
  -3  -5   2   23.69    2.47
   2   5  -2   67.33    5.81
   2   5  -2   75.50    4.24
  -2  -5   2   84.87    6.10
   1   5  -2  202.64   10.82
   1   5  -2  202.72   10.33
   1   5  -2  208.62    8.18
  -1  -5   2  197.57    9.23
   0   5  -2  107.33    5.62
   0   5  -2  102.12    5.65
   0   5  -2  104.11    6.54
   0   5  -2  107.57    7.11
   0  -5   2  112.11    6.09
  -1   5  -2   -1.47    1.75
  -1   5  -2   -0.49    1.52
  -1   5  -2   -0.31    1.50
  -1   5  -2   -0.99    1.91
  -2   5  -2   79.97    5.29
  -2   5  -2   81.96    4.73
   2  -5   2   88.28    5.77
   2  -5   2   92.96    7.26
  -3   5  -2  699.08   22.77
  -3   5  -2  716.60   21.98
   3  -5   2  712.28   19.98
   3  -5   2  754.85   21.09
   3  -5   2  721.56   25.59
  -4   5  -2    4.32    1.85
  -4   5  -2    6.04    2.46
   4  -5   2    5.14    3.50
  -5   5  -2   15.72    3.52
  -5   5  -2   13.64    3.28
   5  -5   2   16.73    5.39
  -6   5  -2    6.42    2.78
   6  -5   2   -1.92    4.61
  -7   5  -2   15.51    3.90
   7  -5   2    6.32    5.42
  -8   5  -2    9.65    3.45
  -8   5  -2   15.61    5.08
   8  -5   2    6.08    6.16
  -9   5  -2    3.06    5.19
  -9   5  -2    9.69    4.16
   9  -5   2    6.24    6.84
 -10   5  -2    1.96    6.26
  10  -5   2   -1.05    9.29
  10  -5   2   -1.54    6.50
 -11   5  -2   13.84    8.00
  11  -5   2    1.75   10.31
   8   4  -2  -19.04   10.72
  -8  -4   2   22.63   16.57
  -8  -4   2    1.18    8.24
   7   4  -2    9.00    7.63
  -7  -4   2   19.02    7.19
  -7  -4   2   20.94   12.35
   6   4  -2   13.74    5.38
   6   4  -2   -5.77    5.55
  -6  -4   2    0.44    5.13
  -6  -4   2   21.12    9.16
   5   4  -2  100.26    9.30
   5   4  -2  129.49   10.23
  -5  -4   2  117.31    9.12
   4   4  -2  106.60    8.96
   4   4  -2  104.63    8.21
   3   4  -2  109.28    7.97
  -3  -4   2   93.06    6.69
  -3  -4   2   95.97    3.84
   2   4  -2  108.30    7.59
   2   4  -2  122.30    5.03
   2   4  -2  119.50    7.46
  -2  -4   2  126.30    5.00
  -2  -4   2  122.11    6.78
   1   4  -2  254.80   11.61
   1   4  -2  264.76   11.12
   1   4  -2  266.85    9.13
  -1  -4   2  261.80   10.15
   0   4  -2 1188.51   31.98
   0   4  -2 1173.31   31.63
   0   4  -2 1189.60   33.90
   0   4  -2 1135.23   33.16
  -1   4  -2  283.83    9.54
  -1   4  -2  279.75   10.25
  -1   4  -2  285.03   10.39
  -1   4  -2  275.63   10.57
   1  -4   2  287.04   11.47
   1  -4   2  270.16   10.00
  -2   4  -2  217.59    8.33
  -2   4  -2  223.12    9.15
   2  -4   2  237.05   11.13
   2  -4   2  242.96    8.87
   2  -4   2  236.96    8.06
  -3   4  -2  107.27    5.45
  -3   4  -2  115.86    6.03
   3  -4   2   96.61    3.64
   3  -4   2   93.73    3.83
   3  -4   2   87.80    6.80
  -4   4  -2  301.19   11.69
  -4   4  -2  287.81   11.47
   4  -4   2  289.79   13.81
  -5   4  -2  402.80   15.09
  -5   4  -2  421.24   15.93
   5  -4   2  428.41   18.45
  -6   4  -2   20.75    3.70
  -6   4  -2   25.46    5.01
  -6   4  -2   22.17    2.55
  -7   4  -2   67.96    4.70
  -7   4  -2   74.48    5.87
  -7   4  -2   66.11    6.86
  -7   4  -2   76.30    4.82
   7  -4   2   62.47    8.49
  -8   4  -2    6.05    3.50
  -8   4  -2    7.88    3.59
  -8   4  -2    1.64    3.94
   8  -4   2   15.82    6.90
  -9   4  -2   10.35    6.49
  -9   4  -2   13.14    4.23
   9  -4   2    5.04    5.39
   9  -4   2    8.87    6.80
 -10   4  -2   20.16    7.37
  10  -4   2   15.41   10.41
 -11   4  -2    0.24    7.40
  11  -4   2  -13.71   11.12
   9   3  -2   -5.96   11.20
  -9  -3   2   25.72   20.31
  -9  -3   2   15.24    9.51
   8   3  -2    6.04    8.57
  -8  -3   2  -12.86   12.49
  -8  -3   2   -4.28    6.92
  -7  -3   2    6.26    8.37
   6   3  -2   -3.46    5.13
  -6  -3   2    0.85    3.82
  -6  -3   2    7.63    6.36
   5   3  -2   23.62    5.17
   5   3  -2   25.32    5.98
  -5  -3   2   26.15    4.47
   4   3  -2   23.31    5.56
  -4  -3   2   24.19    4.17
   3   3  -2  124.03    4.04
   3   3  -2  129.36    8.29
   3   3  -2  122.82    7.66
  -3  -3   2  107.79    4.11
  -3  -3   2  111.50    6.86
   2   3  -2   25.37    1.85
   2   3  -2   28.17    3.62
   2   3  -2   22.57    3.21
  -2  -3   2   23.05    2.90
  -2  -3   2   26.74    2.02
   1   3  -2   -1.19    1.59
   1   3  -2   -0.53    1.44
   1   3  -2   -0.93    0.83
  -1  -3   2    0.10    0.93
  -1  -3   2   -0.76    1.11
   0   3  -2  142.42    6.42
   0   3  -2  140.72    6.57
   0   3  -2  151.66    5.80
   0   3  -2  140.31    5.28
   0  -3   2  145.21    7.50
   0  -3   2  129.22    5.40
   0  -3   2  139.96    5.25
  -1   3  -2 1203.99   33.31
  -1   3  -2 1224.66   33.07
  -1   3  -2 1267.42   32.02
   1  -3   2 1231.74   32.64
   1  -3   2 1231.79   31.91
   1  -3   2 1260.15   33.79
  -2   3  -2   50.70    2.84
  -2   3  -2   46.86    3.26
  -2   3  -2   49.92    3.08
   2  -3   2   48.51    4.37
   2  -3   2   51.90    2.78
   2  -3   2   49.72    2.99
  -3   3  -2  127.59    4.28
  -3   3  -2  117.39    5.95
  -3   3  -2  127.41    6.13
   3  -3   2  123.66    7.57
   3  -3   2  126.93    4.06
  -4   3  -2   10.23    2.28
  -4   3  -2    8.94    1.61
  -4   3  -2   10.65    2.31
   4  -3   2   13.34    1.66
   4  -3   2    6.65    2.92
  -5   3  -2   53.44    5.14
  -5   3  -2   52.80    3.27
  -5   3  -2   50.61    4.14
   5  -3   2   47.96    5.60
   5  -3   2   47.08    3.18
  -6   3  -2   97.38    5.96
   6  -3   2   78.80    9.83
   6  -3   2   95.80    5.31
  -7   3  -2   23.32    5.06
  -7   3  -2   16.12    3.02
   7  -3   2   25.36    4.25
   7  -3   2   16.49    6.16
  -8   3  -2    7.53    4.69
  -8   3  -2   21.33    3.82
  -8   3  -2   15.23    5.21
   8  -3   2   13.04    5.86
  -9   3  -2   -1.08    6.34
  -9   3  -2    4.36    4.89
   9  -3   2   -4.80    4.67
   9  -3   2   -5.74    7.52
 -10   3  -2    8.12    6.12
  10  -3   2    5.74   10.04
 -11   3  -2    6.04    8.58
  11  -3   2  -14.73   12.07
   9   2  -2    4.24    9.14
  -9  -2   2   31.48   14.46
  -9  -2   2   17.10    7.06
   8   2  -2   23.14    8.28
  -8  -2   2   24.19    7.26
  -8  -2   2   10.11   10.13
   7   2  -2   39.46    8.26
  -7  -2   2   47.57    9.22
  -7  -2   2   44.90    7.28
   6   2  -2  125.04   10.20
  -6  -2   2  142.72    9.28
  -6  -2   2  133.03   11.17
   5   2  -2   61.63    7.47
   5   2  -2   57.69    6.33
  -5  -2   2   59.29    6.04
  -5  -2   2   52.47    7.50
   4   2  -2  288.68    7.76
   4   2  -2  275.20   13.44
   4   2  -2  287.78   13.14
  -4  -2   2  315.35   12.79
   3   2  -2   90.77    3.26
   3   2  -2   90.37    6.05
   3   2  -2   84.11    6.20
  -3  -2   2   85.71    5.51
  -3  -2   2   83.27    3.40
   2   2  -2 1848.57   50.05
   2   2  -2 1728.45   47.15
   2   2  -2 1871.68   49.91
  -2  -2   2 1897.02   46.38
  -2  -2   2 1899.83   48.60
   1   2  -2 1510.03   38.94
   1   2  -2 1462.31   39.28
   1   2  -2 1531.44   40.91
  -1  -2   2 1554.00   39.43
  -1  -2   2 1623.48   39.09
  -1  -2   2 1532.52   42.77
   0   2  -2  318.68    9.03
   0   2  -2  310.21    9.95
   0   2  -2  309.04   11.27
   0  -2   2  351.10    9.13
   0  -2   2  345.56   11.58
   0  -2   2  350.83   10.86
   0  -2   2  342.22   10.08
  -1   2  -2  202.21    6.70
  -1   2  -2  187.02    6.17
  -1   2  -2  203.94    6.66
   1  -2   2  161.94    6.40
   1  -2   2  155.57    6.18
   1  -2   2  164.96    5.62
   1  -2   2  162.94    7.59
  -2   2  -2   73.08    3.77
  -2   2  -2   76.97    3.90
  -2   2  -2   74.06    3.18
   2  -2   2   69.11    5.01
   2  -2   2   75.91    4.34
   2  -2   2   67.75    3.65
   2  -2   2   70.64    3.09
  -3   2  -2 1220.48   32.20
  -3   2  -2 1171.97   33.04
  -3   2  -2 1187.60   31.09
   3  -2   2 1162.36   30.89
   3  -2   2 1213.14   35.53
  -4   2  -2  486.84   15.23
  -4   2  -2  469.06   14.76
  -4   2  -2  486.60   16.99
   4  -2   2  485.62   14.82
   4  -2   2  497.16   18.82
  -5   2  -2  185.72    9.49
  -5   2  -2  175.06    7.55
   5  -2   2  169.34    7.74
   5  -2   2  172.68   11.23
  -6   2  -2   83.91    7.24
  -6   2  -2   83.46    5.20
   6  -2   2   76.59    8.17
   6  -2   2   79.64    5.73
  -7   2  -2   82.03    7.86
  -7   2  -2   89.51    5.57
   7  -2   2   99.74    9.07
   7  -2   2   76.97    6.63
  -8   2  -2   82.41    8.27
   8  -2   2   63.99    6.73
   8  -2   2   65.52    9.48
   8  -2   2   81.52    7.73
  -9   2  -2   18.69    8.01
  -9   2  -2   28.52    7.22
   9  -2   2   19.48    8.86
 -10   2  -2    9.11   12.95
  10   1  -2    6.84   11.58
 -10  -1   2    6.51   15.81
 -10  -1   2   -2.41    7.43
   9   1  -2    0.42    7.40
  -9  -1   2    6.35    6.87
  -9  -1   2    7.22   11.44
   8   1  -2    5.69    6.67
  -8  -1   2    4.94    5.52
  -8  -1   2    3.36    8.11
   7   1  -2    7.58    5.57
  -7  -1   2   11.09    6.32
   6   1  -2   23.58    1.98
   6   1  -2   21.29    5.01
  -6  -1   2   22.49    4.61
  -6  -1   2   17.80    5.09
   5   1  -2   56.25    2.89
   5   1  -2   63.03    6.54
   5   1  -2   57.48    2.95
  -5  -1   2   55.61    6.52
  -5  -1   2   58.18    5.38
   4   1  -2    9.67    3.22
   4   1  -2   12.04    1.57
   4   1  -2    9.40    1.53
  -4  -1   2   11.59    2.75
  -4  -1   2   12.53    3.29
   3   1  -2   -0.49    2.00
   3   1  -2    1.54    0.85
  -3  -1   2    0.90    1.04
  -3  -1   2    0.81    1.30
  -3  -1   2   -1.59    2.05
   2   1  -2  127.44    6.24
   2   1  -2  128.02    5.31
  -2  -1   2  126.13    5.41
  -2  -1   2  123.22    4.57
  -2  -1   2  117.96    6.51
   1   1  -2  866.48   23.77
   1   1  -2  925.65   25.24
   1   1  -2  892.72   22.57
  -1  -1   2  857.46   22.50
  -1  -1   2  883.93   22.82
  -1  -1   2  866.20   25.03
  -1  -1   2  836.67   23.67
   0   1  -2   21.38    1.92
   0   1  -2   18.14    1.87
   0   1  -2   19.56    1.62
   0  -1   2   18.42    1.58
   0  -1   2   19.41    1.59
   0  -1   2   16.80    2.10
  -1   1  -2   26.37    2.12
  -1   1  -2   27.38    1.89
  -1   1  -2   25.18    1.90
   1  -1   2   20.90    2.17
   1  -1   2   20.55    1.65
   1  -1   2   19.92    1.63
  -2   1  -2   26.53    2.07
  -2   1  -2   27.61    2.12
  -2   1  -2   27.71    2.46
   2  -1   2   25.31    2.06
   2  -1   2   26.20    3.08
   2  -1   2   31.68    2.14
  -3   1  -2  180.31    8.02
  -3   1  -2  172.26    6.40
  -3   1  -2  170.84    7.09
   3  -1   2  183.84    9.24
   3  -1   2  173.35    6.37
   3  -1   2  174.66    7.13
  -4   1  -2  241.07   10.75
  -4   1  -2  238.77    8.47
   4  -1   2  246.04    9.86
   4  -1   2  256.52   12.44
  -5   1  -2   35.88    3.11
  -5   1  -2   36.32    4.38
   5  -1   2   34.09    4.07
   5  -1   2   40.23    5.70
  -6   1  -2    7.85    3.25
  -6   1  -2    8.53    2.30
   6  -1   2   15.09    5.33
  -7   1  -2    7.69    4.44
   7  -1   2    8.65    3.89
   7  -1   2    8.55    5.58
   7  -1   2    6.98    2.87
  -8   1  -2   17.02    5.27
   8  -1   2   14.20    5.87
   8  -1   2   11.94    5.37
  -9   1  -2   10.12    5.85
   9  -1   2   11.87    6.69
   9  -1   2   18.43    7.93
 -10   1  -2    9.63    8.28
 -10   1  -2   -9.89   12.88
  10  -1   2    0.93    9.50
  10   0  -2   17.09    9.86
 -10   0   2    0.52    7.59
 -10   0   2    3.46   10.81
   9   0  -2   10.17    8.89
  -9   0   2    7.94    6.53
  -9   0   2   22.40    9.31
   8   0  -2   73.09    8.94
  -8   0   2   87.99   10.58
  -8   0   2   81.59    8.65
   7   0  -2  189.12    7.55
   7   0  -2  173.92   12.13
  -7   0   2  180.91   11.34
  -7   0   2  193.89   14.41
   6   0  -2  153.75    6.62
  -6   0   2  147.73    9.89
   5   0  -2   76.24    4.42
   5   0  -2   79.51    4.75
   5   0  -2   79.07    6.88
  -5   0   2   70.45    5.65
  -5   0   2   76.33    6.49
   4   0  -2  686.09   19.15
   4   0  -2  641.68   18.34
   4   0  -2  654.06   22.45
  -4   0   2  667.92   21.07
  -4   0   2  636.82   22.10
   3   0  -2 1412.48   39.33
   3   0  -2 1443.40   36.89
  -3   0   2 1371.63   37.80
  -3   0   2 1405.36   39.40
  -3   0   2 1395.16   36.99
   2   0  -2  752.64   20.24
   2   0  -2  726.65   20.32
   2   0  -2  737.57   21.15
   2   0  -2  711.14   21.51
  -2   0   2  702.62   21.07
  -2   0   2  776.77   20.41
  -2   0   2  751.12   21.77
   1   0  -2  122.05    4.61
   1   0  -2  126.71    4.90
   1   0  -2  120.89    4.33
   1   0  -2  122.03    5.36
  -1   0   2  142.96    5.66
  -1   0   2  136.12    4.42
  -1   0   2  140.07    5.03
  -1   0   2  141.70    4.76
   0   0  -2    1.60    0.58
   0   0  -2    0.92    0.82
   0   0   2    0.93    0.60
   0   0   2    1.96    0.84
   0   0   2    1.28    0.66
   0   0   2    1.31    1.12
  -1   0  -2  993.52   26.92
  -1   0  -2  987.66   27.25
  -1   0  -2  998.39   27.13
  -1   0  -2 1039.71   26.81
   1   0   2 1030.48   25.93
   1   0   2  961.05   27.08
   1   0   2 1024.82   27.01
   1   0   2 1012.11   27.20
  -2   0  -2 2700.20   66.84
  -2   0  -2 2709.11   69.34
   2   0   2 2715.39   66.90
   2   0   2 2622.33   68.85
   2   0   2 2735.77   70.22
  -3   0  -2  170.91    8.09
  -3   0  -2  179.76    5.71
   3   0   2  154.02    7.55
   3   0   2  160.48    5.66
   3   0   2  150.15    8.42
  -4   0  -2  175.84    5.93
  -4   0  -2  171.33    8.99
   4   0   2  154.98    9.36
   4   0   2  162.12    5.89
   4   0   2  163.94    8.45
  -5   0  -2  113.94    4.60
   5   0   2  109.92    7.52
   5   0   2  122.17    8.82
   5   0   2  101.32    4.52
  -6   0  -2  294.53   14.73
   6   0   2  305.62    9.82
   6   0   2  297.23   14.25
   6   0   2  289.98   15.46
   6   0   2  288.79    9.09
  -7   0  -2  121.44    9.84
   7   0   2  118.68    9.24
   7   0   2  141.05   11.88
  -8   0  -2    9.88    6.68
   8   0   2   12.14    7.64
   8   0   2   25.90    6.62
  -9   0  -2   23.88    6.90
   9   0   2   18.19    8.45
   9   0   2   17.55    8.80
 -10   0  -2    3.03    9.68
 -10   0  -2   26.94   14.21
  10   0   2   13.52   10.91
  11  -1  -2  -13.06    9.41
  10  -1  -2   -7.48    7.38
 -10   1   2    2.42    8.83
 -10   1   2  -11.00    7.30
   9  -1  -2    5.31    5.88
  -9   1   2   17.41    6.62
  -9   1   2   -0.17    5.08
   8  -1  -2   36.69    4.59
   8  -1  -2   34.01    7.90
  -8   1   2   42.85    7.17
  -8   1   2   31.62    6.71
   7  -1  -2   17.31    5.09
   7  -1  -2   20.15    3.58
  -7   1   2   22.59    5.32
  -7   1   2   19.72    4.75
   6  -1  -2   11.07    2.64
  -6   1   2   17.01    4.02
  -6   1   2   13.71    3.67
   5  -1  -2   -0.99    1.61
   5  -1  -2    1.33    2.68
  -5   1   2    1.27    2.15
  -5   1   2   -1.26    2.32
   4  -1  -2   77.70    5.71
   4  -1  -2   79.56    4.80
  -4   1   2   69.90    5.07
  -4   1   2   78.89    5.18
   3  -1  -2  475.71   14.73
   3  -1  -2  438.68   14.49
   3  -1  -2  434.14   15.22
  -3   1   2  437.10   14.57
  -3   1   2  460.64   14.53
  -3   1   2  463.30   14.66
   2  -1  -2  521.72   14.77
   2  -1  -2  489.37   14.98
   2  -1  -2  504.11   14.29
   2  -1  -2  500.15   14.60
  -2   1   2  473.52   14.43
  -2   1   2  460.33   14.52
  -2   1   2  472.09   14.24
  -2   1   2  460.24   14.78
   1  -1  -2   17.85    1.87
   1  -1  -2   20.04    1.28
   1  -1  -2   22.78    1.71
   1  -1  -2   20.17    1.85
  -1   1   2   25.69    1.29
  -1   1   2   26.89    2.16
  -1   1   2   27.92    1.94
  -1   1   2   25.74    2.10
   0  -1  -2  134.88    5.82
   0  -1  -2  140.63    4.59
   0  -1  -2  135.53    5.22
   0  -1  -2  139.10    5.41
   0   1   2  143.58    4.48
   0   1   2  145.46    5.42
   0   1   2  140.90    5.44
   0   1   2  143.92    6.02
  -1  -1  -2  391.70   11.42
  -1  -1  -2  407.40   12.82
  -1  -1  -2  367.24   12.82
   1   1   2  419.22   11.59
   1   1   2  408.04   12.65
   1   1   2  395.17   13.29
  -2  -1  -2  268.18   10.71
  -2  -1  -2  256.52    8.00
   2   1   2  278.93   11.00
   2   1   2  276.43   10.95
   2   1   2  283.92    8.26
  -3  -1  -2   46.03    4.60
  -3  -1  -2   45.19    2.11
   3   1   2   51.06    4.70
   3   1   2   46.30    2.37
   3   1   2   49.26    4.63
  -4  -1  -2   31.69    4.14
  -4  -1  -2   24.54    1.46
   4   1   2   23.27    1.57
   4   1   2   20.68    4.68
   4   1   2   22.77    4.04
  -5  -1  -2   21.26    4.74
   5   1   2   27.79    5.11
   5   1   2   24.22    5.93
  -6  -1  -2   -1.33    3.69
   6   1   2   -1.63    4.08
   6   1   2   -5.89    4.63
   7   1   2   57.15    8.25
   7   1   2   47.64    8.18
  -8  -1  -2   -0.16    5.79
   8   1   2    5.87    8.20
   8   1   2   16.71    7.21
  -9  -1  -2    3.18    7.43
   9   1   2    0.80   12.60
   9   1   2   -7.50    8.83
  11  -2  -2   11.88   10.89
 -11   2   2   13.84    8.42
  10  -2  -2    1.67    7.34
 -10   2   2   -5.78    6.73
   9  -2  -2   89.69    6.82
   9  -2  -2   74.96    9.25
  -9   2   2   79.99    9.56
  -9   2   2   65.52    8.11
   8  -2  -2   69.84    6.09
   8  -2  -2   70.47    8.94
  -8   2   2   71.49    7.45
  -8   2   2   60.99    6.87
   7  -2  -2   69.19    7.63
   7  -2  -2   82.41    5.86
  -7   2   2   76.28    7.01
  -7   2   2   83.63    6.84
   6  -2  -2   58.14    5.07
   6  -2  -2   52.62    6.24
  -6   2   2   54.22    5.25
  -6   2   2   56.67    5.42
   5  -2  -2  583.36   19.50
   5  -2  -2  569.59   21.01
  -5   2   2  549.32   19.43
  -5   2   2  580.54   18.67
   4  -2  -2  201.26    9.87
   4  -2  -2  197.46    9.14
   4  -2  -2  194.46    8.00
  -4   2   2  205.64    8.13
  -4   2   2  216.78    9.17
   3  -2  -2 1394.88   36.59
   3  -2  -2 1388.99   38.56
   3  -2  -2 1345.67   37.95
  -3   2   2 1370.00   37.45
  -3   2   2 1418.92   36.53
   2  -2  -2   69.59    3.61
   2  -2  -2   68.41    3.71
   2  -2  -2   69.13    4.34
  -2   2   2   71.61    3.77
  -2   2   2   72.07    3.99
  -2   2   2   77.51    3.93
   1  -2  -2  745.74   18.65
   1  -2  -2  749.92   19.28
   1  -2  -2  709.69   20.70
   1  -2  -2  741.24   21.39
  -1   2   2  738.70   20.70
  -1   2   2  722.25   20.91
  -1   2   2  689.46   21.15
   0  -2  -2 1947.79   48.83
   0  -2  -2 1982.17   49.91
   0   2   2 1874.34   49.96
   0   2   2 1937.56   48.75
   0   2   2 1978.41   50.53
   0   2   2 1881.95   51.06
  -1  -2  -2  375.79   13.96
  -1  -2  -2  400.73   11.96
   1   2   2  415.90   13.22
   1   2   2  404.13   12.29
   1   2   2  410.98   14.63
  -2  -2  -2   66.50    4.87
   2   2   2   60.12    3.08
   2   2   2   62.32    5.32
   2   2   2   63.07    4.97
  -3  -2  -2   65.45    5.48
   3   2   2   70.00    6.00
   3   2   2   65.56    5.86
  -4  -2  -2  178.97   12.04
   4   2   2  213.52   11.46
   4   2   2  224.86   11.82
  -5  -2  -2  281.17   14.91
   5   2   2  285.07   14.79
   5   2   2  275.05   14.57
  -6  -2  -2   61.85    7.97
   6   2   2   73.92    8.96
   6   2   2   67.46    8.10
  -7  -2  -2   50.47    7.51
   7   2   2   69.10   10.39
   7   2   2   68.13    9.92
  -8  -2  -2   20.12    8.27
   8   2   2   20.49    8.25
   8   2   2    3.32    8.46
  -9  -2  -2   20.79   10.66
   9   2   2   43.37   13.77
   9   2   2   23.52   11.89
 -11   3   2    6.01    7.69
  10  -3  -2    3.46    6.81
 -10   3   2    9.01    5.52
   9  -3  -2   11.93    6.53
   9  -3  -2   18.22    4.66
  -9   3   2   15.23    5.80
  -9   3   2   10.08    4.96
   8  -3  -2    2.43    5.43
   8  -3  -2    8.27    3.66
  -8   3   2    2.24    3.89
  -8   3   2    6.89    4.36
   7  -3  -2    0.88    2.92
   7  -3  -2    0.35    4.45
  -7   3   2    5.22    3.47
  -7   3   2   -1.69    2.89
   6  -3  -2   29.95    4.77
   6  -3  -2   36.12    5.75
  -6   3   2   25.84    4.00
  -6   3   2   23.42    3.69
   5  -3  -2   64.60    5.60
   5  -3  -2   60.66    4.22
   5  -3  -2   70.44    6.18
  -5   3   2   60.92    5.23
  -5   3   2   60.27    3.96
   4  -3  -2  397.57   15.15
   4  -3  -2  394.72   12.24
   4  -3  -2  388.80   14.71
  -4   3   2  354.28   13.59
  -4   3   2  365.75   11.82
   3  -3  -2  121.77    7.02
   3  -3  -2  133.51    5.64
   3  -3  -2  127.00    6.40
  -3   3   2  123.98    6.27
  -3   3   2  124.86    5.29
   2  -3  -2   33.43    3.38
   2  -3  -2   34.29    2.27
   2  -3  -2   32.14    2.79
   2  -3  -2   37.25    2.89
  -2   3   2   31.68    2.74
  -2   3   2   34.62    2.92
   1  -3  -2   85.99    5.03
   1  -3  -2   84.28    3.57
  -1   3   2   71.29    4.48
  -1   3   2   76.47    3.48
  -1   3   2   74.74    4.70
   0  -3  -2  287.03    9.68
   0  -3  -2  286.95   10.48
   0   3   2  295.48   11.04
   0   3   2  296.47    9.73
   0   3   2  287.28   11.64
  -1  -3  -2   90.30    4.26
  -1  -3  -2   94.81    4.56
  -1  -3  -2   91.64    5.87
   1   3   2   94.44    6.24
   1   3   2   90.33    5.12
  -2  -3  -2  136.31    8.37
  -2  -3  -2  147.60    5.32
  -2  -3  -2  150.19    5.47
   2   3   2  149.23    7.91
   2   3   2  160.36    9.46
  -3  -3  -2    8.80    2.66
   3   3   2    4.17    2.94
   3   3   2    6.42    3.11
  -4  -3  -2    7.65    3.53
   4   3   2    0.63    4.59
   4   3   2    1.98    3.36
  -5  -3  -2   55.51    7.48
   5   3   2   63.36    7.15
   5   3   2   60.75    8.30
  -6  -3  -2   42.37    8.49
   6   3   2   40.24    8.74
   6   3   2   42.12    8.44
  -7  -3  -2    2.53    6.45
   7   3   2    5.95    7.56
   7   3   2  -10.73    6.39
  -8  -3  -2  -13.94    7.63
   8   3   2    4.63   10.24
  11  -4  -2    6.11    8.17
  10  -4  -2   19.79    5.78
 -10   4   2   12.38    6.73
   9  -4  -2   38.60    9.33
   9  -4  -2   21.08    5.09
  -9   4   2   29.48    6.15
  -9   4   2   29.14    6.69
   8  -4  -2    2.79    4.75
  -8   4   2    1.45    3.48
   7  -4  -2   79.91    8.42
   7  -4  -2   81.48    6.93
  -7   4   2   71.36    4.90
  -7   4   2   82.00    6.69
   6  -4  -2  125.12    8.75
   6  -4  -2  129.66    8.96
  -6   4   2  134.52    8.22
  -6   4   2  127.35    5.31
  -6   4   2  128.30    5.70
   5  -4  -2  281.07   12.87
   5  -4  -2  267.21    9.50
   5  -4  -2  286.14   13.34
  -5   4   2  263.31   11.87
  -5   4   2  276.40    9.16
   4  -4  -2  299.78   12.44
   4  -4  -2  315.00   13.71
   4  -4  -2  297.66   10.22
  -4   4   2  296.52    9.87
  -4   4   2  298.36   12.19
   3  -4  -2  113.43    7.34
   3  -4  -2  113.18    6.20
   3  -4  -2  106.37    5.87
  -3   4   2  107.92    6.05
  -3   4   2  106.05    5.30
   2  -4  -2  579.20   19.84
   2  -4  -2  555.01   16.32
   2  -4  -2  537.22   17.62
  -2   4   2  572.12   18.45
  -2   4   2  571.12   18.04
   1  -4  -2  394.51   12.85
   1  -4  -2  432.46   15.49
  -1   4   2  423.07   14.95
  -1   4   2  421.29   12.97
  -1   4   2  409.59   15.17
   0  -4  -2  248.97   10.32
   0   4   2  260.40   10.99
   0   4   2  257.51   11.65
   0   4   2  264.54    9.70
  -1  -4  -2   46.35    5.01
  -1  -4  -2   46.02    3.70
   1   4   2   51.77    4.21
   1   4   2   48.06    5.24
  -2  -4  -2   72.61    3.95
  -2  -4  -2   76.56    3.83
  -2  -4  -2   71.20    6.33
   2   4   2   71.28    5.74
  -3  -4  -2  264.55   13.46
   3   4   2  269.93   14.39
   3   4   2  278.96   13.14
  -4  -4  -2  106.05    8.70
   4   4   2   93.94    8.47
   4   4   2  101.44    9.74
  -5  -4  -2  104.66    9.99
   5   4   2   84.86   10.36
   5   4   2   81.44    9.68
  -6  -4  -2   20.09    6.17
   6   4   2   21.35    7.06
   6   4   2   14.29    7.49
  -7  -4  -2   10.68   15.60
   7   4   2   17.14   10.53
   7   4   2    7.91    9.58
  12  -5  -2   -0.41   11.03
 -12   5   2    0.41    8.03
  11  -5  -2   21.31    6.94
  11  -5  -2   12.53    9.02
 -11   5   2   11.43    9.22
  10  -5  -2   -4.39    5.92
  10  -5  -2   12.97    8.12
 -10   5   2    8.05    5.97
   9  -5  -2   -6.68    5.49
   9  -5  -2    5.34    4.89
  -9   5   2    4.76    4.29
   8  -5  -2    8.86    4.51
   8  -5  -2    6.77    5.68
  -8   5   2    4.94    3.83
   7  -5  -2   27.38    4.90
  -7   5   2   21.98    2.39
  -7   5   2   20.61    3.75
   6  -5  -2   58.27    5.93
   6  -5  -2   70.02    6.56
   6  -5  -2   59.74    3.72
  -6   5   2   60.86    3.45
  -6   5   2   47.32    6.07
   5  -5  -2   13.82    4.06
   5  -5  -2   15.94    3.00
   5  -5  -2   15.36    4.28
  -5   5   2   11.59    2.21
  -5   5   2   12.19    3.33
   4  -5  -2   35.55    4.97
   4  -5  -2   37.93    4.64
  -4   5   2   45.63    4.29
  -4   5   2   38.02    3.19
   3  -5  -2   55.59    5.36
   3  -5  -2   57.16    4.98
  -3   5   2   57.86    4.28
  -3   5   2   58.23    5.07
   2  -5  -2  102.52    6.46
   2  -5  -2   91.94    6.59
  -2   5   2   92.15    6.03
  -2   5   2   89.47    6.21
   1  -5  -2  177.82    9.29
  -1   5   2  159.60    8.38
  -1   5   2  169.41    7.33
  -1   5   2  174.21    9.34
   0  -5  -2  318.62   14.08
   0  -5  -2  318.61   12.80
   0   5   2  328.79   12.10
   0   5   2  310.02   14.26
  -1  -5  -2   12.96    2.95
  -1  -5  -2   11.34    2.73
   1   5   2   10.03    2.86
  -2  -5  -2   18.44    2.69
  -2  -5  -2   16.94    4.67
   2   5   2   22.31    4.41
   2   5   2   20.60    4.86
  -3  -5  -2   38.10    6.29
   3   5   2   43.26    5.89
   3   5   2   42.86    6.91
  -4  -5  -2  111.29    9.84
   4   5   2   92.83   10.74
   4   5   2   82.99    9.68
  -5  -5  -2    5.90    4.86
   5   5   2    7.75    6.74
   5   5   2    5.79    6.41
  -6  -5  -2    2.49    6.35
   6   5   2   -1.45    7.86
   6   5   2   23.06    9.37
  -7  -5  -2    5.85    9.51
   7   5   2    8.40   10.28
   7   5   2  -17.83   12.30
  12  -6  -2  -11.02    8.77
  12  -6  -2    7.72   11.26
 -12   6   2   -2.51    8.42
  11  -6  -2   -3.41   10.14
 -11   6   2   -6.41    6.71
  10  -6  -2    8.80    6.45
  10  -6  -2   15.59    8.01
   9  -6  -2    4.53    5.46
   9  -6  -2   13.86    6.81
  -9   6   2   -5.12    4.22
   8  -6  -2    9.39    4.37
   8  -6  -2   33.10    7.42
  -8   6   2   20.40    5.71
   7  -6  -2   13.43    4.78
   7  -6  -2   18.21    6.14
  -7   6   2   25.37    4.55
   6  -6  -2  101.31    5.21
   6  -6  -2  119.32    8.79
   6  -6  -2  109.20    8.73
  -6   6   2  116.70    8.32
  -6   6   2  110.58    4.75
   5  -6  -2   15.43    4.15
  -5   6   2   12.73    2.45
   4  -6  -2  145.77   10.12
   4  -6  -2  143.27    8.61
  -4   6   2  131.67    8.01
  -4   6   2  137.67    7.03
   3  -6  -2  157.26    9.75
   3  -6  -2  153.57    8.62
  -3   6   2  146.82    8.36
  -3   6   2  150.80    8.05
   2  -6  -2   95.99    7.11
  -2   6   2   94.14    5.37
  -2   6   2  105.86    7.22
  -2   6   2   98.55    7.17
   1  -6  -2   69.13    6.31
  -1   6   2   75.78    5.19
  -1   6   2   68.25    6.38
  -1   6   2   70.56    5.60
   0  -6  -2   46.93    5.27
   0  -6  -2   36.64    4.59
   0   6   2   43.48    5.72
   0   6   2   38.18    4.15
  -1  -6  -2  182.41   11.14
  -1  -6  -2  189.66    9.04
   1   6   2  182.03    9.56
   1   6   2  178.58   11.30
  -2  -6  -2   64.69    7.81
  -2  -6  -2   72.29    5.02
   2   6   2   69.70    8.49
   2   6   2   74.11    9.10
  -3  -6  -2   58.39    7.45
   3   6   2   61.10   11.00
   3   6   2   52.26    7.97
  -4  -6  -2   24.81    6.69
   4   6   2   27.19    7.58
   4   6   2   37.65    9.55
  -5  -6  -2    7.32    6.97
   5   6   2   10.14    8.32
   5   6   2   15.39    8.39
  -6  -6  -2    2.10    8.25
   6   6   2   29.95   12.28
   6   6   2   16.83   11.99
  12  -7  -2    9.15    8.62
 -12   7   2   -0.06    8.27
  11  -7  -2   12.23   11.96
  11  -7  -2   13.11    8.38
  10  -7  -2   -3.92    6.69
  10  -7  -2    1.99    8.05
 -10   7   2    2.66    5.58
   9  -7  -2   -1.47    7.38
   9  -7  -2   19.46    6.26
  -9   7   2   12.22    5.04
   8  -7  -2   20.04    5.57
   8  -7  -2   18.99    6.97
  -8   7   2   15.63    5.03
   7  -7  -2   15.63    5.74
   7  -7  -2   11.07    4.34
  -7   7   2    2.61    4.02
   6  -7  -2    6.24    5.11
   6  -7  -2    6.58    3.13
   6  -7  -2    3.76    4.09
  -6   7   2    8.30    3.22
  -6   7   2    5.01    2.22
   5  -7  -2   52.77    6.54
   5  -7  -2   45.88    6.71
  -5   7   2   42.46    4.96
  -5   7   2   48.62    4.56
   4  -7  -2   69.02    7.15
   4  -7  -2   82.77    7.28
  -4   7   2   74.31    6.35
  -4   7   2   84.96    5.91
   3  -7  -2   84.03    7.32
  -3   7   2   72.98    6.18
  -3   7   2   79.13    6.59
   2  -7  -2  130.97    8.83
  -2   7   2  129.14    8.73
  -2   7   2  120.22    6.83
  -2   7   2  128.59    8.52
   1  -7  -2   21.55    4.14
  -1   7   2   16.11    3.70
  -1   7   2   19.12    3.72
  -1   7   2   19.81    4.39
   0  -7  -2   21.01    4.62
   0  -7  -2   12.66    4.55
   0   7   2   23.58    6.01
   0   7   2   22.78    4.70
  -1  -7  -2   19.25    5.54
  -1  -7  -2   19.10    3.88
   1   7   2   16.74    5.10
  -2  -7  -2   82.44    9.22
  -2  -7  -2   67.33    8.16
   2   7   2   77.72   10.32
   2   7   2   94.49    8.61
  -3  -7  -2    1.90    5.77
   3   7   2   15.93    6.45
   3   7   2   -7.92    6.07
  -4  -7  -2   11.09    6.64
   4   7   2    6.91    7.82
   4   7   2  -11.75    8.93
  -5  -7  -2  -12.67    7.80
   5   7   2    0.13    9.98
   5   7   2   -4.17   11.16
  11  -8  -2   15.99    8.84
  11  -8  -2    2.21    9.82
 -11   8   2   -3.72    7.19
  10  -8  -2   22.19   10.42
  10  -8  -2   -0.45    6.08
 -10   8   2   -3.79    5.78
   9  -8  -2    7.64    6.03
   9  -8  -2   -2.56    8.03
  -9   8   2   13.13    5.63
   8  -8  -2   11.42    5.42
   8  -8  -2   23.35    6.97
  -8   8   2   18.20    4.89
   7  -8  -2   17.70    5.78
   7  -8  -2   16.13    6.37
  -7   8   2   13.36    4.94
   6  -8  -2   37.84    7.31
   6  -8  -2   45.48    7.57
  -6   8   2   35.14    4.42
  -6   8   2   32.04    5.07
   5  -8  -2   20.09    5.55
   5  -8  -2   27.35    5.67
  -5   8   2   19.29    3.60
  -5   8   2   16.47    4.08
   4  -8  -2    1.85    4.40
   4  -8  -2   14.31    5.43
  -4   8   2    9.15    4.08
  -4   8   2    9.56    3.52
   3  -8  -2   30.64    5.58
   3  -8  -2   35.96    6.86
  -3   8   2   28.40    5.48
  -3   8   2   26.29    4.72
   2  -8  -2   26.73    5.43
  -2   8   2   37.76    6.18
  -2   8   2   23.94    4.50
  -2   8   2   27.40    4.64
  -1   8   2   79.00    6.54
  -1   8   2   61.18    7.37
  -1   8   2   72.17    7.97
   0  -8  -2   47.69    6.90
   0  -8  -2   54.96    6.89
   0   8   2   62.30    9.70
  -1  -8  -2   23.02    4.28
  -1  -8  -2   34.70    6.20
   1   8   2   14.99    7.93
   1   8   2   18.59    6.19
  -2  -8  -2   17.46    5.88
   2   8   2   28.04    8.34
   2   8   2   21.74    7.22
  -3  -8  -2    6.43    7.82
   3   8   2    5.34    8.46
   3   8   2    7.78   10.34
  -4  -8  -2   16.64    9.85
   4   8   2   25.97   13.10
   4   8   2   19.92   10.28
  11  -9  -2  -16.75   11.69
  11  -9  -2   18.37   11.93
 -11   9   2   11.09    9.20
  10  -9  -2   20.53   10.89
  10  -9  -2   -5.79    6.83
 -10   9   2    7.00    7.08
   9  -9  -2    9.28    9.09
   9  -9  -2    1.25    6.23
  -9   9   2    0.55    5.18
   8  -9  -2    8.55    8.71
   8  -9  -2   -6.15    5.81
  -8   9   2   -7.82    5.58
   7  -9  -2   -4.03    5.38
   7  -9  -2    5.95    7.02
  -7   9   2   -0.81    4.95
   6  -9  -2   40.96    9.43
   6  -9  -2   32.05    7.92
  -6   9   2   40.57    5.23
  -6   9   2   41.08    7.17
   5  -9  -2   32.77    7.76
   5  -9  -2   14.17    6.04
  -5   9   2   20.63    4.92
   4  -9  -2   17.50    7.79
   4  -9  -2   13.30    6.17
  -4   9   2   14.88    4.52
  -4   9   2   26.83    4.95
   3  -9  -2    4.97    5.29
   3  -9  -2   14.12    6.45
  -3   9   2   11.56    4.83
  -3   9   2    3.03    5.16
   2  -9  -2    2.76    5.06
  -2   9   2    5.77    4.74
  -2   9   2   10.27    5.84
  -2   9   2    6.69    4.21
   1  -9  -2   12.54    5.33
   1  -9  -2   23.61    5.85
  -1   9   2   12.27    7.08
  -1   9   2   19.10    4.99
   0  -9  -2   20.77    7.30
   0  -9  -2   23.43    6.18
   0   9   2   26.57    8.52
   0   9   2   28.88    6.51
  -1  -9  -2   17.24    7.04
   1   9   2   -4.22    7.50
   1   9   2   11.04    6.93
  -2  -9  -2    4.94    7.30
   2   9   2   11.89    7.88
   2   9   2    1.89   18.71
  -3  -9  -2   11.13    8.95
   3   9   2   20.65   10.86
   3   9   2   23.54    9.25
  11 -10  -2    5.97    9.47
  11 -10  -2  -10.76   13.76
 -11  10   2    7.23    9.39
  10 -10  -2  -16.67   10.84
 -10  10   2    8.18    9.45
   9 -10  -2    0.96    6.84
   9 -10  -2   -3.19    9.96
  -9  10   2    0.76    6.23
   8 -10  -2   13.81    7.04
   8 -10  -2    5.75    8.90
  -8  10   2    5.49    5.76
   7 -10  -2   -7.00    7.92
   7 -10  -2   -5.08    5.51
  -7  10   2    8.30    5.50
   6 -10  -2  -10.85    7.03
   6 -10  -2   -4.69    5.91
  -6  10   2    5.70    5.47
  -6  10   2    2.32    4.59
   5 -10  -2    7.95    5.55
   5 -10  -2   13.40    7.49
   4 -10  -2   24.67    8.47
   4 -10  -2   28.68    6.47
  -4  10   2   31.13    6.37
  -4  10   2   14.27    6.24
   3 -10  -2   21.55    8.67
   3 -10  -2   18.56    6.52
  -3  10   2    9.99    6.15
  -3  10   2   26.24    6.34
   2 -10  -2   13.58    6.39
  -2  10   2   20.88    6.28
  -2  10   2   27.91    7.73
   1 -10  -2    3.29    5.92
   1 -10  -2    2.64    5.65
  -1  10   2   -1.50    8.05
  -1  10   2    6.77    5.90
   0 -10  -2   16.56    7.79
   0  10   2   17.10    7.40
   0  10   2   17.76    8.96
  -1 -10  -2    2.16    7.26
   1  10   2   -4.41    8.88
   1  10   2   11.02    8.18
  10 -11  -2  -10.46    7.89
  10 -11  -2   -8.29   13.25
 -10  11   2    8.46    9.14
   9 -11  -2    6.08    9.07
   9 -11  -2   -2.40   11.07
   8 -11  -2    8.17    6.91
   8 -11  -2    2.22    9.72
  -8  11   2   11.07    6.96
   7 -11  -2   10.62    6.75
   7 -11  -2   21.08    9.25
  -7  11   2   12.84    6.89
   6 -11  -2   12.65    7.09
   6 -11  -2    4.72    9.47
  -6  11   2    3.02    5.66
   5 -11  -2  -11.56    9.25
   5 -11  -2   16.28    7.63
  -5  11   2    3.67    6.87
  -5  11   2    1.08    6.12
   4 -11  -2   -8.32    6.47
   4 -11  -2    9.37    9.70
  -4  11   2    1.57    6.79
  -4  11   2   12.32    5.91
   3 -11  -2   24.75    8.28
   3 -11  -2   -7.91    9.61
  -3  11   2   24.61    8.37
  -3  11   2    3.12    7.59
   2 -11  -2    5.89    7.85
   2 -11  -2   17.44    7.45
   2 -11  -2   14.04   10.89
  -2  11   2   23.11    9.42
   1 -11  -2   -8.69    6.86
   1 -11  -2    5.35    8.43
  -1  11   2   -7.40   10.29
   0 -11  -2   -1.76    8.86
   0  11   2   11.79   11.48
   9 -12  -2   11.25    9.11
   9 -12  -2  -14.64   12.79
   8 -12  -2   10.45    8.85
  -8  12   2   17.03    8.79
   7 -12  -2   -1.81   11.31
   7 -12  -2   17.15    8.82
  -7  12   2   -0.98    7.00
   6 -12  -2   -0.82    8.34
   6 -12  -2    1.38   11.60
  -6  12   2   -4.37    6.92
   5 -12  -2    1.21    7.62
  -5  12   2   18.49    9.23
  -5  12   2    2.08    7.66
   4 -12  -2   -9.47    8.53
  -4  12   2    7.34    8.41
  -4  12   2   16.22    8.14
   3 -12  -2    4.71    8.79
   3 -12  -2  -13.71    8.35
  -3  12   2   -6.42    7.87
  -3  12   2   22.96    9.86
   2 -12  -2   -0.54    9.18
   2 -12  -2   11.98    8.53
  -2  12   2    7.24   11.98
   2 -13   3    2.33   11.32
  -3  13  -3   14.63    7.88
   3 -13   3   12.34    8.85
   3 -13   3   -1.56   11.09
   3 -13   3   17.49   15.26
  -4  13  -3   -8.08    7.34
  -4  13  -3   -7.98    7.71
   4 -13   3   -6.83   13.07
   4 -13   3   -7.82    9.58
  -5  13  -3   14.45    8.84
  -5  13  -3  -13.49    8.97
   5 -13   3    3.50   12.37
  -6  13  -3    7.35    6.19
  -6  13  -3    1.55    7.91
   6 -13   3  -14.58   11.82
  -7  13  -3   11.25    9.16
   7 -13   3  -13.27   12.64
  -8  13  -3   -3.50    8.64
  -8  13  -3    2.48    8.22
   0  12  -3    5.11   10.48
   0 -12   3   -4.53    9.02
   0 -12   3    8.04   10.23
  -1  12  -3   -6.08    9.15
   1 -12   3    6.36    9.84
   1 -12   3    7.07    8.65
   1 -12   3    7.00    8.16
  -2  12  -3   -1.98    6.06
  -2  12  -3    6.19    8.78
   2 -12   3   13.57    7.58
   2 -12   3    9.24    9.35
  -3  12  -3    6.75    5.84
  -3  12  -3   -9.07    6.06
   3 -12   3   -7.30    8.36
   3 -12   3   -6.79   10.55
  -4  12  -3   17.03    6.32
  -4  12  -3    7.97    6.13
   4 -12   3   -1.20   10.54
   4 -12   3   -0.20    8.25
  -5  12  -3   -6.35    6.22
  -5  12  -3    9.39    5.42
   5 -12   3    2.60    9.72
  -6  12  -3   15.31    6.30
  -6  12  -3   -5.07    6.56
   6 -12   3   -1.07   10.84
  -7  12  -3   -2.75    5.94
   7 -12   3   -1.03   12.01
  -8  12  -3   -3.63    6.22
  -8  12  -3  -14.33    7.31
   8 -12   3   12.54   12.37
  -9  12  -3   -0.68    8.38
  -9  12  -3   -3.95    6.61
   1  11  -3    5.80    9.40
  -1 -11   3   -2.27    9.66
  -1 -11   3   -0.87    7.69
   0  11  -3    7.39    8.45
   0 -11   3   -3.99    9.24
   0 -11   3    2.97    7.40
   0 -11   3    6.70    7.68
  -1  11  -3   12.24    5.35
  -1  11  -3   22.75    7.93
   1 -11   3   17.25    6.93
   1 -11   3   18.57    7.49
  -2  11  -3   21.32    7.32
  -2  11  -3    7.63    5.02
   2 -11   3    7.45    7.83
   2 -11   3    3.52    5.94
  -3  11  -3   16.14    5.41
  -3  11  -3   18.01    5.57
   3 -11   3   16.22    7.68
   3 -11   3   11.62   10.03
  -4  11  -3   10.09    4.54
  -4  11  -3   16.78    5.62
   4 -11   3    7.81    9.04
   4 -11   3    6.95    6.66
  -5  11  -3   17.46    5.70
  -5  11  -3   -0.50    4.91
   5 -11   3   -7.18    8.12
   5 -11   3    7.40    6.03
  -6  11  -3   -5.64    5.52
  -6  11  -3   13.69    5.21
   6 -11   3    2.19    8.14
  -7  11  -3    9.26    5.33
  -7  11  -3    4.07    5.92
   7 -11   3   10.10    9.35
  -8  11  -3    1.55    5.44
  -8  11  -3   15.66    6.70
   8 -11   3   -2.86    9.96
  -9  11  -3   -6.72    7.47
   9 -11   3   -3.83   11.40
 -10  11  -3   16.60   11.24
 -10  11  -3  -10.48    6.79
  10 -11   3  -14.60   12.10
   3  10  -3    1.91   15.81
  -3 -10   3    0.76   10.99
  -3 -10   3    2.95    7.82
   2  10  -3    2.15    8.97
  -2 -10   3   17.24    7.50
  -2 -10   3    5.43   10.55
   1  10  -3   -6.97    7.34
  -1 -10   3   17.33    7.00
  -1 -10   3   -5.61    8.82
   0  10  -3    3.07    6.32
   0  10  -3    5.90    4.05
   0 -10   3    6.39    5.72
   0 -10   3    1.54    7.77
  -1  10  -3    1.52    4.15
  -1  10  -3    0.15    5.72
   1 -10   3   -3.15    5.07
   1 -10   3   -3.53    6.79
  -2  10  -3    5.34    4.10
  -2  10  -3   -4.55    4.19
  -2  10  -3   12.37    5.71
   2 -10   3   12.06    6.47
  -3  10  -3   12.85    4.64
  -3  10  -3    6.24    4.06
   3 -10   3    8.61    5.71
   3 -10   3   24.28    8.27
  -4  10  -3   24.51    4.92
  -4  10  -3   17.89    4.01
   4 -10   3   18.27    7.41
  -5  10  -3   34.35    5.88
  -5  10  -3   29.71    5.44
   5 -10   3   25.67    5.24
   5 -10   3   27.90    7.74
  -6  10  -3    7.59    4.48
  -6  10  -3    6.11    4.29
   6 -10   3    4.76    7.66
  -7  10  -3    9.26    4.26
  -7  10  -3   15.13    5.62
   7 -10   3   18.95    8.47
  -8  10  -3    7.73    5.82
  -8  10  -3   -1.40    4.70
   8 -10   3   -1.43    7.24
  -9  10  -3   -4.79    5.36
  -9  10  -3   -0.14    6.14
   9 -10   3   16.00   10.16
 -10  10  -3   -5.12    8.02
 -10  10  -3   -3.87    7.07
 -11  10  -3    4.77    6.86
  -4  -9   3    6.89   12.97
  -4  -9   3   10.33    7.32
   3   9  -3    7.97    9.22
  -3  -9   3   -3.17    9.83
  -3  -9   3   14.72    6.68
   2   9  -3   -6.22    7.00
  -2  -9   3   -5.86    5.53
  -2  -9   3    1.98    8.59
   1   9  -3   51.84    8.95
   1   9  -3   47.74    5.69
  -1  -9   3   46.86    8.82
  -1  -9   3   40.46    7.18
   0   9  -3   30.85    7.05
   0   9  -3   23.49    5.19
   0   9  -3   40.99    7.72
   0  -9   3   38.70    6.81
   0  -9   3   25.77    6.79
  -1   9  -3   56.32    5.89
  -1   9  -3   57.17    7.37
   1  -9   3   57.34    6.88
   1  -9   3   48.47    9.63
  -2   9  -3   10.51    3.79
  -2   9  -3   10.86    3.41
  -2   9  -3   16.34    4.97
   2  -9   3   15.04    5.54
  -3   9  -3    1.29    3.57
  -3   9  -3   -1.82    2.96
   3  -9   3   -2.23    6.43
   3  -9   3    3.23    4.46
  -4   9  -3   10.98    3.32
  -4   9  -3   10.31    4.62
   4  -9   3   16.22    4.30
   4  -9   3   11.99    7.19
  -5   9  -3   31.12    4.97
  -5   9  -3   24.06    4.84
   5  -9   3   36.86    5.12
   5  -9   3   22.56    8.05
  -6   9  -3   35.46    5.74
  -6   9  -3   39.71    6.48
   6  -9   3   35.58    8.53
  -7   9  -3   17.99    4.59
  -7   9  -3   20.31    5.69
   7  -9   3   11.48    7.66
  -8   9  -3   -1.07    4.50
  -8   9  -3    5.93    5.38
   8  -9   3   23.55    7.51
  -9   9  -3   13.83    6.96
   9  -9   3  -13.10    8.07
 -10   9  -3   -0.47    6.65
 -10   9  -3    7.54    7.89
  10  -9   3  -17.09   10.96
 -11   9  -3    4.06    6.95
 -11   9  -3   18.82    8.66
  11  -9   3  -15.23   11.21
   5   8  -3   -6.72    9.96
  -5  -8   3    3.32   13.88
  -5  -8   3   -8.34    6.90
   4   8  -3   43.19   12.01
  -4  -8   3    7.49    9.74
  -4  -8   3   15.85    6.18
   3   8  -3    8.80    7.08
  -3  -8   3    4.07    5.00
  -3  -8   3   11.36    8.00
   2   8  -3   17.61    5.51
   2   8  -3   10.86    3.10
   2   8  -3   13.46    5.21
  -2  -8   3    9.72    6.55
  -2  -8   3    9.90    5.00
   1   8  -3   13.83    3.50
   1   8  -3   12.33    5.01
  -1  -8   3    4.94    5.19
  -1  -8   3   11.36    4.17
   0   8  -3   10.62    3.17
   0   8  -3    9.82    3.72
   0   8  -3   12.93    3.89
   0  -8   3    8.16    3.50
   0  -8   3    8.70    5.41
  -1   8  -3   45.85    4.57
  -1   8  -3   48.66    5.15
  -1   8  -3   43.62    5.91
   1  -8   3   48.58    7.40
  -2   8  -3   45.11    5.01
  -2   8  -3   37.65    4.97
  -2   8  -3   45.76    4.98
   2  -8   3   47.40    6.16
  -3   8  -3   98.92    6.81
  -3   8  -3   91.21    6.84
   3  -8   3   93.51    9.83
   3  -8   3   85.32    7.35
  -4   8  -3   27.78    4.21
  -4   8  -3   29.30    4.46
   4  -8   3   30.04    5.10
   4  -8   3   38.43    8.00
  -5   8  -3   27.83    4.80
   5  -8   3   38.55    3.81
   5  -8   3   22.73    6.16
   5  -8   3   33.20    3.47
  -6   8  -3    7.98    3.55
  -6   8  -3    5.28    3.45
   6  -8   3    6.33    5.52
  -7   8  -3   11.39    3.63
  -7   8  -3    7.89    4.19
   7  -8   3   22.86    7.44
  -8   8  -3   20.50    4.74
   8  -8   3   19.71    6.85
  -9   8  -3    1.50    5.38
  -9   8  -3    4.16    4.74
   9  -8   3    5.43    8.12
 -10   8  -3   20.47    7.22
 -10   8  -3    3.29    6.92
  10  -8   3   -7.59    9.67
 -11   8  -3   -1.77    8.68
 -11   8  -3   -1.17    7.23
  11  -8   3  -14.03   11.37
   6   7  -3   28.58   11.10
  -6  -7   3   10.74   14.38
  -6  -7   3   -9.13    8.43
   5   7  -3   18.46    8.61
  -5  -7   3    6.78   10.28
  -5  -7   3    7.36    6.20
   4   7  -3    0.48    6.96
  -4  -7   3    2.46    7.77
  -4  -7   3    1.59    4.83
   3   7  -3   46.13    8.18
   3   7  -3   49.14    7.47
  -3  -7   3   37.40    5.84
  -3  -7   3   26.40    8.00
   2   7  -3   44.75    6.86
   2   7  -3   47.49    7.24
   2   7  -3   40.81    4.32
   1   7  -3  118.81    9.82
   1   7  -3  120.53    6.63
   1   7  -3  119.14    8.46
  -1  -7   3  113.38    7.78
   0   7  -3   19.08    3.04
   0  -7   3   27.10    4.05
  -1   7  -3    1.13    2.28
  -1   7  -3    0.02    2.28
  -1   7  -3    0.75    2.94
   1  -7   3   -0.88    3.76
  -2   7  -3   54.57    5.50
  -2   7  -3   54.00    4.53
  -2   7  -3   56.97    5.10
   2  -7   3   56.41    5.85
  -3   7  -3  143.90    8.58
  -3   7  -3  136.41    7.32
   3  -7   3  122.44    9.64
   3  -7   3  130.33    8.04
  -4   7  -3  126.32    7.35
  -4   7  -3  117.07    7.78
   4  -7   3  112.60    9.48
   4  -7   3  134.48    6.77
  -5   7  -3   79.80    6.23
  -5   7  -3   72.81    6.05
   5  -7   3   70.17    3.18
   5  -7   3   62.69    2.92
   5  -7   3   69.35    7.73
  -6   7  -3    4.69    2.99
  -6   7  -3   10.95    3.67
   6  -7   3   10.43    5.56
  -7   7  -3   -2.78    3.66
  -7   7  -3    0.14    3.04
   7  -7   3   12.29    5.78
  -8   7  -3    5.03    3.60
  -8   7  -3   10.42    4.11
   8  -7   3    0.31    6.38
  -9   7  -3    3.42    4.97
  -9   7  -3   -0.32    5.07
   9  -7   3   -0.16    7.05
 -10   7  -3   -4.27    5.43
 -10   7  -3   -4.40    5.86
  10  -7   3   -8.02    8.04
 -11   7  -3    1.17    7.44
 -11   7  -3   14.02    6.58
  11  -7   3  -13.76   11.24
  11  -7   3   -3.82    8.37
   7   6  -3    4.08   12.11
  -7  -6   3    3.39    8.72
  -7  -6   3   -0.23   15.72
   6   6  -3   19.17    8.71
  -6  -6   3   25.56    7.73
  -6  -6   3   32.38   13.35
   5   6  -3   15.84    6.70
  -5  -6   3   14.13    8.90
  -5  -6   3    5.55    5.47
   4   6  -3    5.74    5.30
  -4  -6   3   15.93    4.83
  -4  -6   3   15.03    6.80
   3   6  -3   26.12    3.07
   3   6  -3   25.89    5.78
   3   6  -3   19.25    5.05
  -3  -6   3   26.03    7.57
   2   6  -3   29.84    4.84
   2   6  -3   44.36    6.33
   2   6  -3   30.50    3.63
  -2  -6   3   34.90    4.81
   1   6  -3  170.23    9.59
   1   6  -3  167.07    7.78
  -1  -6   3  155.88    8.35
   0   6  -3   15.27    2.67
   0   6  -3   22.70    4.03
   0   6  -3   15.55    3.96
   0  -6   3   17.90    4.31
   0  -6   3   15.71    3.01
  -1   6  -3  219.85    9.88
  -1   6  -3  217.29    9.23
  -1   6  -3  217.09   10.54
   1  -6   3  221.45   11.84
  -2   6  -3  129.82    7.43
  -2   6  -3  125.83    7.53
  -2   6  -3  116.62    6.24
   2  -6   3  132.71    7.93
  -3   6  -3   78.29    5.55
  -3   6  -3   83.37    5.22
   3  -6   3   65.76    7.04
   3  -6   3   78.94    5.40
  -4   6  -3   44.04    4.11
  -4   6  -3   37.22    4.27
   4  -6   3   44.64    2.94
   4  -6   3   35.72    3.22
   4  -6   3   49.15    6.66
  -5   6  -3   12.18    3.10
  -5   6  -3   14.63    3.19
   5  -6   3   20.67    5.47
  -6   6  -3  103.93    7.22
   6  -6   3   98.46    9.97
  -7   6  -3   30.93    4.34
  -7   6  -3   26.60    5.04
   7  -6   3   42.12    8.39
  -8   6  -3   21.74    5.61
  -8   6  -3   24.40    4.31
   8  -6   3   25.11    7.88
  -9   6  -3   -2.76    5.41
  -9   6  -3    1.32    4.67
   9  -6   3    0.50    7.23
 -10   6  -3   -4.13    5.27
 -10   6  -3   -0.07    5.87
  10  -6   3   -3.90    9.22
  11  -6   3   44.71   13.58
  11  -6   3   15.67    8.42
   8   5  -3   25.11   12.67
  -8  -5   3   -6.04   10.65
  -8  -5   3   -2.46   19.46
   7   5  -3   14.11    8.94
  -7  -5   3    9.97   13.73
  -7  -5   3   12.74    7.73
   6   5  -3   10.68    7.86
  -6  -5   3   -9.23    8.96
  -6  -5   3   -2.90    5.91
   5   5  -3   -4.31    5.50
  -5  -5   3   11.90    6.78
  -5  -5   3   -3.58    4.11
   4   5  -3   24.18    6.28
   4   5  -3   36.25    6.01
  -4  -5   3   21.64    4.80
  -4  -5   3   11.30    5.89
   3   5  -3   60.00    5.80
   3   5  -3   67.53    6.81
   3   5  -3   54.91    3.51
  -3  -5   3   48.52    5.53
  -3  -5   3   50.61    3.64
  -3  -5   3   46.46    7.42
   2   5  -3   45.28    3.50
   2   5  -3   52.61    5.71
   2   5  -3   41.58    5.52
  -2  -5   3   48.36    4.64
   1   5  -3    0.15    2.27
   1   5  -3    0.16    1.55
   1   5  -3    1.39    2.45
  -1  -5   3    3.66    3.45
  -1  -5   3    1.02    1.88
   0   5  -3   98.38    6.44
   0   5  -3  108.51    5.74
   0  -5   3   98.91    5.54
   0  -5   3  107.23    8.09
  -1   5  -3  429.37   15.79
  -1   5  -3  445.63   15.14
  -1   5  -3  447.51   13.92
   1  -5   3  426.11   16.69
  -2   5  -3  394.75   13.09
  -2   5  -3  406.83   14.67
   2  -5   3  401.69   14.73
   2  -5   3  407.15   17.62
  -3   5  -3  139.68    6.64
  -3   5  -3  145.43    7.56
   3  -5   3  133.80    5.67
   3  -5   3  137.29    9.25
   3  -5   3  133.80    6.23
  -4   5  -3   35.76    3.90
  -4   5  -3   34.04    3.97
   4  -5   3   37.43    2.23
   4  -5   3   47.63    6.07
   4  -5   3   39.71    2.24
  -5   5  -3    7.20    3.08
  -5   5  -3    7.85    2.18
   5  -5   3    4.94    4.07
  -6   5  -3   42.91    4.70
   6  -5   3   39.27    6.81
  -7   5  -3   37.92    5.26
  -7   5  -3   33.33    5.76
   7  -5   3   41.81    7.10
  -8   5  -3   14.69    4.46
  -8   5  -3    6.28    2.97
   8  -5   3    4.02    5.73
  -9   5  -3    4.33    4.62
  -9   5  -3   -5.56    4.00
   9  -5   3    4.23    7.51
 -10   5  -3    1.97    4.96
 -10   5  -3    3.39    6.40
  10  -5   3   -4.84    8.18
 -11   5  -3    3.27    8.52
  11  -5   3   -1.14   12.40
   8   4  -3   23.85   11.21
  -8  -4   3   35.02   17.50
  -8  -4   3   23.40    7.92
   7   4  -3   35.92    9.38
  -7  -4   3   39.55    7.77
  -7  -4   3   58.48   12.18
   6   4  -3   21.42    6.96
  -6  -4   3   16.38    6.11
  -6  -4   3   10.97    7.77
   5   4  -3   43.86    8.46
  -5  -4   3   30.83    5.57
   4   4  -3   20.48    5.72
   4   4  -3   19.54    1.64
  -4  -4   3   28.85    4.49
  -4  -4   3   26.77    6.91
  -4  -4   3   24.18    2.15
   3   4  -3  560.40   22.06
   3   4  -3  568.66   21.58
   3   4  -3  570.42   15.95
  -3  -4   3  562.11   16.06
  -3  -4   3  548.77   23.99
  -3  -4   3  558.86   19.46
   2   4  -3  140.18    5.69
   2   4  -3  134.02    8.02
   2   4  -3  124.54    8.03
  -2  -4   3  136.88    6.93
  -2  -4   3  140.89    9.50
   1   4  -3  257.90   11.25
   1   4  -3  264.39    9.32
  -1  -4   3  253.23   12.71
  -1  -4   3  268.96    9.72
   0   4  -3  542.84   15.99
   0   4  -3  547.22   17.10
   0   4  -3  557.55   18.44
   0  -4   3  584.92   20.35
   0  -4   3  568.60   16.13
  -1   4  -3  260.96   10.32
  -1   4  -3  262.62    9.94
  -1   4  -3  261.33    8.58
   1  -4   3  259.46   10.92
   1  -4   3  253.04    8.38
  -2   4  -3  806.87   22.71
  -2   4  -3  812.43   24.30
   2  -4   3  810.82   27.14
   2  -4   3  841.07   23.76
   2  -4   3  821.41   22.68
  -3   4  -3  110.26    6.08
  -3   4  -3  107.48    5.63
  -3   4  -3  112.39    4.85
   3  -4   3  112.11    4.69
   3  -4   3  110.79    7.92
  -4   4  -3  310.45    9.06
  -4   4  -3  293.97   11.75
  -4   4  -3  302.61   11.91
   4  -4   3  286.64   14.05
   4  -4   3  279.72    8.56
  -5   4  -3  145.91    5.62
  -5   4  -3  149.20    8.29
  -5   4  -3  148.02    7.71
   5  -4   3  154.82   10.26
   5  -4   3  150.56    5.64
  -6   4  -3   75.63    4.38
  -6   4  -3   70.15    5.79
   6  -4   3   68.26    7.65
   6  -4   3   73.23    4.10
  -7   4  -3   35.02    5.26
  -7   4  -3   27.69    4.56
   7  -4   3   29.99    3.86
   7  -4   3   25.29    7.30
  -8   4  -3    6.34    4.10
  -8   4  -3   11.47    4.79
  -8   4  -3    0.97    4.25
   8  -4   3   -2.88    5.70
  -9   4  -3   17.67    4.50
  -9   4  -3   25.05    6.44
   9  -4   3   29.65    9.00
 -10   4  -3    2.01    7.36
  10  -4   3    5.53    9.14
 -11   4  -3    8.10    8.32
  11  -4   3    9.80   13.33
   9   3  -3   26.89   11.98
  -9  -3   3   -0.21   15.21
  -9  -3   3   -3.61   14.14
   8   3  -3    8.44    7.52
  -8  -3   3  -10.66   12.35
  -8  -3   3   13.74    7.11
   7   3  -3    5.99    6.25
  -7  -3   3   -0.53    9.03
  -7  -3   3   -2.75    5.67
   6   3  -3   29.33    7.07
  -6  -3   3   39.31    6.25
  -6  -3   3   33.65    7.90
   5   3  -3   50.18    6.23
  -5  -3   3   54.34    7.98
  -4  -3   3   35.51    2.65
  -4  -3   3   33.67    4.26
  -4  -3   3   36.80    6.29
   3   3  -3    0.50    1.00
   3   3  -3    0.89    2.27
  -3  -3   3    2.52    3.02
  -3  -3   3    3.59    2.02
  -3  -3   3    0.64    1.33
   2   3  -3   21.91    3.05
   2   3  -3   23.46    2.23
  -2  -3   3   24.58    2.26
  -2  -3   3   27.92    2.86
  -2  -3   3   24.83    3.85
   1   3  -3  437.57   12.97
   1   3  -3  417.88   14.67
  -1  -3   3  401.97   12.30
  -1  -3   3  413.48   16.25
  -1  -3   3  429.82   12.74
  -1  -3   3  408.77   12.98
   0   3  -3  528.57   16.91
   0   3  -3  553.97   16.14
   0  -3   3  531.68   18.15
   0  -3   3  524.97   14.45
  -1   3  -3  230.45    8.71
  -1   3  -3  241.29    7.46
  -1   3  -3  238.50    9.28
  -1   3  -3  236.64    9.10
   1  -3   3  250.40    9.40
   1  -3   3  247.85    7.47
  -2   3  -3   33.98    2.88
  -2   3  -3   36.67    2.82
  -2   3  -3   33.47    2.61
   2  -3   3   28.69    3.68
   2  -3   3   32.21    2.57
   2  -3   3   37.71    2.73
  -3   3  -3   22.91    2.62
  -3   3  -3   19.51    2.13
  -3   3  -3   22.27    2.71
   3  -3   3   19.51    3.46
   3  -3   3   16.18    1.73
  -4   3  -3   88.78    5.77
  -4   3  -3   84.12    4.46
  -4   3  -3   87.71    5.20
   4  -3   3   89.45    7.14
   4  -3   3   87.86    4.14
  -5   3  -3  196.35    8.84
  -5   3  -3  198.60    9.91
   5  -3   3  197.94    7.85
   5  -3   3  206.82   11.82
  -6   3  -3   72.04    6.07
  -6   3  -3   77.20    5.29
   6  -3   3   53.91    7.25
   6  -3   3   63.04    4.79
  -7   3  -3    4.45    3.28
  -7   3  -3    1.26    2.61
   7  -3   3    6.64    3.04
   7  -3   3   -3.39    5.70
  -8   3  -3    2.59    4.96
  -8   3  -3   -1.87    3.19
   8  -3   3    9.68    6.35
   8  -3   3   -0.90    3.81
  -9   3  -3    3.25    5.98
  -9   3  -3   -6.08    6.90
   9  -3   3   -2.07    6.04
   9  -3   3   -7.30    4.82
   9  -3   3   -3.43    7.41
 -10   3  -3   16.01   12.17
  10  -3   3    3.09    9.65
  -9  -2   3   13.23    7.26
  -9  -2   3   28.94   13.95
   8   2  -3   22.25    8.41
  -8  -2   3   33.88    9.36
  -8  -2   3   20.64    6.50
   7   2  -3   53.75    7.69
  -7  -2   3   48.37    7.68
  -7  -2   3   59.42   11.82
   6   2  -3  119.99    9.59
  -6  -2   3  119.52    8.98
  -6  -2   3  129.76   11.08
   5   2  -3  418.21   11.50
   5   2  -3  387.83   12.49
   5   2  -3  405.20   18.13
  -5  -2   3  425.53   16.78
  -5  -2   3  421.32   19.70
   4   2  -3  698.87   24.68
   4   2  -3  703.25   18.80
  -4  -2   3  675.63   25.85
  -4  -2   3  711.31   22.72
  -4  -2   3  675.70   19.29
   3   2  -3   90.61    3.86
   3   2  -3   91.75    6.34
  -3  -2   3   88.49    5.23
  -3  -2   3   82.73    6.90
  -3  -2   3   79.87    3.96
   2   2  -3  592.28   16.48
   2   2  -3  570.16   18.82
   2   2  -3  554.96   16.94
  -2  -2   3  597.23   16.52
  -2  -2   3  564.76   20.44
  -2  -2   3  613.71   17.25
   1   2  -3  714.72   19.37
   1   2  -3  699.08   18.42
   1   2  -3  740.67   20.81
  -1  -2   3  603.09   18.76
  -1  -2   3  691.09   22.27
  -1  -2   3  714.36   19.34
   0   2  -3 2337.36   56.46
   0   2  -3 2276.01   60.15
   0   2  -3 2322.31   58.97
   0   2  -3 2297.82   58.44
   0  -2   3 2213.29   58.35
   0  -2   3 2314.20   60.17
   0  -2   3 2455.23   56.59
   0  -2   3 2216.00   58.85
  -1   2  -3  733.36   20.55
  -1   2  -3  700.88   20.72
  -1   2  -3  696.46   19.61
   1  -2   3  752.50   19.28
   1  -2   3  733.11   20.73
   1  -2   3  728.84   22.44
   1  -2   3  752.00   21.62
  -2   2  -3  178.33    6.89
  -2   2  -3  173.04    7.00
  -2   2  -3  172.34    6.71
   2  -2   3  171.04    6.57
   2  -2   3  189.80    8.91
   2  -2   3  168.67    6.75
  -3   2  -3  778.07   21.80
  -3   2  -3  766.56   22.67
  -3   2  -3  749.99   21.37
   3  -2   3  734.51   21.11
   3  -2   3  711.74   24.60
  -4   2  -3  175.57    8.80
  -4   2  -3  186.55    7.57
   4  -2   3  179.02   10.13
   4  -2   3  170.33    7.37
  -5   2  -3  215.90   10.71
  -5   2  -3  194.80    8.41
   5  -2   3  220.47   12.76
   5  -2   3  200.87    8.93
  -6   2  -3   28.29    5.06
  -6   2  -3   30.38    3.44
   6  -2   3   19.88    5.65
   6  -2   3   23.84    4.18
  -7   2  -3   41.29    4.68
  -7   2  -3   34.62    5.81
   7  -2   3   53.87    7.73
   7  -2   3   53.37    5.84
  -8   2  -3   38.95    5.22
  -8   2  -3   34.08    6.89
   8  -2   3   50.14    8.91
   8  -2   3   51.07    6.91
  -9   2  -3    9.29    6.07
   9  -2   3   -1.20    7.69
   9  -2   3   -1.67    6.17
 -10   2  -3   21.06    8.15
  10  -2   3   -2.74    9.47
  10   1  -3    4.45    8.90
 -10  -1   3    8.73    9.88
   9   1  -3    1.21    6.94
  -9  -1   3    2.39   10.42
   8   1  -3   14.04    6.01
  -8  -1   3    8.15    5.56
  -8  -1   3    6.10    7.80
   7   1  -3   52.30    3.15
   7   1  -3   45.21    6.79
  -7  -1   3   46.83    9.15
  -7  -1   3   41.08    6.54
   6   1  -3   11.37    1.93
   6   1  -3    8.61    4.35
  -6  -1   3   17.42    4.37
  -6  -1   3   15.95    4.32
   5   1  -3   -0.09    1.42
   5   1  -3    2.61    1.56
   5   1  -3    0.58    3.17
  -5  -1   3   -3.78    2.51
  -5  -1   3    2.09    3.40
   4   1  -3   13.23    2.96
   4   1  -3    9.92    1.82
  -4  -1   3   11.12    2.11
  -4  -1   3   13.14    3.59
  -4  -1   3   13.89    3.15
   3   1  -3  243.66    8.23
   3   1  -3  238.58   10.47
  -3  -1   3  239.37   11.23
  -3  -1   3  245.80    8.41
  -3  -1   3  228.58    9.11
   2   1  -3  318.00   11.69
   2   1  -3  331.38   10.59
  -2  -1   3  354.53   10.75
  -2  -1   3  352.89   10.69
  -2  -1   3  354.30   13.50
   1   1  -3  413.62   14.65
   1   1  -3  435.56   12.03
   1   1  -3  431.59   13.13
  -1  -1   3  484.03   12.07
  -1  -1   3  463.50   13.33
  -1  -1   3  474.48   13.73
  -1  -1   3  474.71   15.20
   0   1  -3  145.03    5.27
   0   1  -3  145.50    5.50
   0   1  -3  141.08    4.08
   0   1  -3  140.95    4.18
   0   1  -3  140.86    6.03
   0  -1   3  135.23    6.06
   0  -1   3  133.67    5.30
   0  -1   3  134.11    5.16
  -1   1  -3  918.46   24.91
  -1   1  -3  921.77   25.85
  -1   1  -3  971.24   25.40
  -1   1  -3  970.98   26.94
   1  -1   3  908.22   26.62
   1  -1   3  937.04   25.79
   1  -1   3  964.62   25.37
   1  -1   3  921.23   24.95
  -2   1  -3  314.90   11.07
  -2   1  -3  296.42   10.10
  -2   1  -3  279.79   10.59
   2  -1   3  358.23   11.27
   2  -1   3  344.48   12.54
  -3   1  -3  271.00    9.10
  -3   1  -3  269.05   10.87
   3  -1   3  255.07   11.63
   3  -1   3  266.36   10.05
  -4   1  -3  174.68    6.92
  -4   1  -3  187.07    9.49
   4  -1   3  165.80    8.11
   4  -1   3  170.44   10.00
  -5   1  -3    4.62    1.68
  -5   1  -3    1.66    2.43
   5  -1   3    8.26    2.80
   5  -1   3    2.71    4.02
  -6   1  -3   15.59    4.45
  -6   1  -3   15.54    2.76
   6  -1   3   10.78    5.57
   6  -1   3   16.88    4.08
  -7   1  -3    9.12    4.07
   7  -1   3    9.82    5.58
  -8   1  -3   18.76    5.82
   8  -1   3   14.01    5.83
   8  -1   3   23.43    7.37
  -9   1  -3   -6.05    6.87
   9  -1   3   11.20    7.44
   9  -1   3   23.95    8.06
 -10   1  -3    2.56    7.92
  10  -1   3   -9.70   10.48
  10   0  -3   -3.05    9.03
 -10   0   3    4.62   10.90
 -10   0   3   14.37    7.33
   9   0  -3   34.24    8.81
  -9   0   3   41.33    8.36
  -9   0   3   64.83   12.72
   8   0  -3   41.02    7.98
  -8   0   3   52.84    9.32
  -8   0   3   54.54    7.39
   7   0  -3   97.87    9.71
   7   0  -3  112.42    5.90
  -7   0   3  125.81   11.66
  -7   0   3   90.44    8.20
   6   0  -3  349.87   12.21
   6   0  -3  337.67   16.24
  -6   0   3  328.69   15.00
  -6   0   3  342.24   16.22
   5   0  -3   73.84    4.44
   5   0  -3   65.43    6.68
  -5   0   3   65.48    6.52
  -5   0   3   77.07    5.66
   4   0  -3  330.21   13.51
   4   0  -3  321.56   11.31
  -4   0   3  317.34   13.71
  -4   0   3  325.05   12.26
   3   0  -3  267.12    9.40
   3   0  -3  259.69   10.44
  -3   0   3  259.84    9.49
  -3   0   3  244.15    9.13
  -3   0   3  257.86   11.00
   2   0  -3 2329.62   62.55
   2   0  -3 2429.86   61.27
   2   0  -3 2384.38   60.47
   2   0  -3 2582.11   61.60
  -2   0   3 2344.15   61.16
  -2   0   3 2470.48   62.94
  -2   0   3 2300.17   61.23
  -2   0   3 2374.77   60.44
   1   0  -3 1001.44   27.44
   1   0  -3  880.24   25.80
   1   0  -3 1020.16   26.64
   1   0  -3 1005.97   25.42
  -1   0   3  992.96   26.58
  -1   0   3  999.81   27.47
  -1   0   3  984.60   25.46
  -1   0   3 1000.92   26.08
   0   0  -3  122.96    5.68
   0   0  -3  125.88    4.91
   0   0  -3  119.67    5.05
   0   0  -3  125.82    4.66
   0   0   3  121.23    4.99
   0   0   3  123.25    4.83
   0   0   3  123.39    4.21
   0   0   3  123.91    5.64
   0   0   3  120.32    4.62
  -1   0  -3 2290.77   55.85
  -1   0  -3 2218.80   58.67
  -1   0  -3 2226.76   56.99
  -1   0  -3 2198.51   56.66
   1   0   3 2126.71   56.71
   1   0   3 2093.10   56.59
   1   0   3 2306.81   57.58
   1   0   3 2215.40   55.86
  -2   0  -3  314.49    9.67
  -2   0  -3  305.09   11.34
   2   0   3  306.66    9.61
   2   0   3  311.18   12.05
   2   0   3  292.87   11.12
  -3   0  -3  450.80   12.95
  -3   0  -3  449.79   15.99
   3   0   3  434.61   15.63
   3   0   3  414.34   16.47
   3   0   3  429.05   12.91
  -4   0  -3  553.28   16.05
   4   0   3  559.91   19.73
   4   0   3  564.58   16.15
   4   0   3  575.89   21.77
  -5   0  -3   26.36    5.03
  -5   0  -3   21.95    2.56
   5   0   3   19.42    2.63
   5   0   3   23.03    4.51
  -6   0  -3  168.73    6.53
  -6   0  -3  177.93   11.47
   6   0   3  176.68   12.35
  -7   0  -3   21.72    5.80
   7   0   3   28.70    5.83
   7   0   3   33.44    8.51
  -8   0  -3   37.50    8.11
   8   0   3   69.50   12.05
   8   0   3   59.00    9.24
  -9   0  -3    5.54   13.23
   9   0   3   -0.17    7.91
   9   0   3   -2.64    8.29
  11  -1  -3    7.62   11.33
 -11   1   3   17.43    8.63
  10  -1  -3    5.53    7.75
 -10   1   3    2.59   10.79
 -10   1   3   -3.29    7.07
   9  -1  -3   17.38    7.42
  -9   1   3   12.46    7.13
   8  -1  -3   12.05    5.68
   8  -1  -3   12.38    3.38
  -8   1   3   16.43    5.27
  -8   1   3   13.05    5.97
   7  -1  -3   -1.89    2.45
  -7   1   3    1.27    3.07
  -7   1   3    5.94    4.07
   6  -1  -3   19.74    3.35
   6  -1  -3   11.69    4.04
  -6   1   3   14.16    3.11
  -6   1   3   12.85    3.59
   5  -1  -3  138.82    7.17
   5  -1  -3  138.00    8.49
  -5   1   3  132.82    7.83
  -5   1   3  139.15    7.80
   4  -1  -3  221.63   10.23
   4  -1  -3  228.27    9.27
  -4   1   3  210.46    9.55
  -4   1   3  190.75    8.78
   3  -1  -3  239.60    9.63
   3  -1  -3  252.39    9.74
   3  -1  -3  261.80   10.87
  -3   1   3  244.63    9.28
  -3   1   3  241.39    9.76
   2  -1  -3   31.57    2.29
   2  -1  -3   32.68    2.92
   2  -1  -3   27.55    2.10
   2  -1  -3   30.70    2.68
  -2   1   3   26.14    2.46
  -2   1   3   27.65    2.25
  -2   1   3   29.55    2.82
   1  -1  -3  939.48   22.48
   1  -1  -3  948.98   25.50
   1  -1  -3  915.12   25.65
   1  -1  -3  918.45   24.58
  -1   1   3  905.73   25.56
  -1   1   3  924.83   24.64
  -1   1   3  861.37   25.29
  -1   1   3  853.38   22.58
   0  -1  -3  782.99   22.38
   0  -1  -3  782.01   21.16
   0   1   3  835.25   23.79
   0   1   3  834.31   22.71
   0   1   3  797.52   22.55
   0   1   3  829.62   21.13
  -1  -1  -3  374.22   12.90
  -1  -1  -3  405.98   13.70
  -1  -1  -3  414.05   12.16
   1   1   3  415.34   13.14
   1   1   3  400.59   14.05
   1   1   3  408.94   12.38
  -2  -1  -3  127.93    5.03
  -2  -1  -3  128.67    7.09
   2   1   3  131.07    5.25
   2   1   3  132.69    7.10
   2   1   3  131.45    7.04
  -3  -1  -3   38.78    4.19
  -3  -1  -3   41.96    2.45
   3   1   3   37.92    4.42
   3   1   3   29.44    2.52
   3   1   3   34.87    4.40
  -4  -1  -3   28.88    2.02
  -4  -1  -3   20.89    3.74
   4   1   3   26.44    2.48
   4   1   3   26.69    4.26
   4   1   3   31.92    6.23
  -5  -1  -3   28.10    4.66
  -5  -1  -3   31.73    1.90
   5   1   3   27.14    2.12
   5   1   3   36.68    6.32
  -6  -1  -3   28.81    5.84
   6   1   3   32.82    6.74
   6   1   3   25.35    6.31
  -7  -1  -3   27.86    6.42
   7   1   3   29.78    7.93
   7   1   3   13.89    7.31
  -8  -1  -3   -5.53    6.43
   8   1   3   13.46    7.87
   8   1   3    2.68    8.46
  -9  -1  -3   -9.59    9.08
   9   1   3  -13.00    8.94
   9   1   3  -14.92    9.96
  11  -2  -3   25.47    9.67
 -11   2   3   18.04    9.17
  10  -2  -3   19.76    8.68
 -10   2   3   18.39    7.35
 -10   2   3   15.73    7.58
   9  -2  -3   19.76    4.28
   9  -2  -3   11.28    5.83
  -9   2   3   20.13    5.52
  -9   2   3   12.10    6.11
   8  -2  -3   80.36    8.44
   8  -2  -3   79.83    6.84
  -8   2   3   85.51    8.30
  -8   2   3   81.29    7.54
   7  -2  -3   81.52    6.55
   7  -2  -3   76.32    8.04
  -7   2   3   84.35    6.94
  -7   2   3   66.16    6.45
   6  -2  -3   59.19    5.33
   6  -2  -3   53.25    5.82
  -6   2   3   55.79    5.42
  -6   2   3   45.55    5.13
   5  -2  -3  351.42   15.05
   5  -2  -3  356.45   14.17
  -5   2   3  369.78   14.26
  -5   2   3  367.66   13.69
   4  -2  -3  579.73   19.30
   4  -2  -3  561.15   19.22
  -4   2   3  547.17   18.52
  -4   2   3  577.11   18.17
   3  -2  -3 1166.72   32.96
   3  -2  -3 1117.41   31.37
   3  -2  -3 1197.92   31.61
  -3   2   3 1110.95   31.48
  -3   2   3 1148.09   31.46
  -3   2   3 1060.03   31.26
   2  -2  -3  175.95    6.09
   2  -2  -3  173.15    7.89
   2  -2  -3  162.95    7.17
  -2   2   3  172.93    7.09
  -2   2   3  173.44    7.27
  -2   2   3  184.19    6.27
   1  -2  -3  532.29   13.40
   1  -2  -3  514.87   16.56
   1  -2  -3  538.72   13.16
  -1   2   3  508.55   16.02
  -1   2   3  509.44   16.66
   0  -2  -3  409.02   13.09
   0  -2  -3  424.86   12.02
   0   2   3  409.77   13.63
   0   2   3  382.49   12.24
   0   2   3  390.99   14.11
  -1  -2  -3  421.90   15.44
  -1  -2  -3  427.91   13.22
   1   2   3  446.56   14.18
   1   2   3  438.39   13.74
   1   2   3  442.36   15.96
  -2  -2  -3 1001.46   26.25
  -2  -2  -3  968.37   30.29
   2   2   3  992.05   30.91
   2   2   3  980.92   29.47
   2   2   3 1003.36   26.96
  -3  -2  -3   12.12    1.67
  -3  -2  -3    9.70    3.27
   3   2   3   17.83    2.28
   3   2   3   14.17    3.20
   3   2   3   22.73    4.18
  -4  -2  -3  228.00   11.94
   4   2   3  187.83   12.63
   4   2   3  221.24   11.82
  -5  -2  -3   76.55    8.15
   5   2   3   79.79    8.21
   5   2   3   76.45    8.22
  -6  -2  -3   92.03    8.90
   6   2   3   91.84   10.72
   6   2   3   82.92    8.91
  -7  -2  -3   31.72    7.31
   7   2   3   30.20    7.88
   7   2   3   30.55    9.05
  -8  -2  -3   -4.97    7.53
   8   2   3    9.73    8.80
   8   2   3   -0.34    8.72
 -11   3   3   -2.73   11.70
  10  -3  -3    7.68    5.10
 -10   3   3    6.02    5.62
   9  -3  -3    7.21    6.05
  -9   3   3   -0.52    5.19
  -9   3   3    0.25    4.41
   8  -3  -3    7.07    5.31
   8  -3  -3   11.15    3.54
  -8   3   3    9.10    3.87
   7  -3  -3   55.58    5.77
   7  -3  -3   46.77    7.95
  -7   3   3   44.41    5.26
  -7   3   3   48.20    5.29
   6  -3  -3   90.27    7.40
  -6   3   3   90.71    6.55
  -6   3   3   91.84    5.94
   5  -3  -3   50.67    5.54
   5  -3  -3   54.90    5.45
  -5   3   3   48.48    4.43
  -5   3   3   46.44    3.96
   4  -3  -3   14.25    2.91
   4  -3  -3   13.43    3.20
  -4   3   3    9.63    2.19
  -4   3   3   11.13    2.33
   3  -3  -3   14.43    2.78
   3  -3  -3   19.56    2.55
  -3   3   3   19.00    2.46
  -3   3   3   21.51    3.08
  -3   3   3   20.57    3.01
   2  -3  -3  321.01    9.36
  -2   3   3  321.56   11.69
  -2   3   3  324.40   11.74
   1  -3  -3  363.64   13.09
   1  -3  -3  354.96   10.01
  -1   3   3  367.37   13.18
  -1   3   3  297.69   11.43
  -1   3   3  344.84   12.49
   0  -3  -3  197.23    8.29
   0  -3  -3  201.84    7.59
   0   3   3  194.06    8.88
   0   3   3  199.31    7.28
   0   3   3  204.26    9.59
  -1  -3  -3   20.96    2.55
  -1  -3  -3   26.59    3.57
   1   3   3   15.76    3.14
   1   3   3   21.25    2.85
  -2  -3  -3  132.46    5.52
  -2  -3  -3  125.98    8.13
  -2  -3  -3  143.22    5.66
   2   3   3  138.51    8.99
   2   3   3  144.27    7.77
  -3  -3  -3  120.53    8.34
  -3  -3  -3  118.69    4.49
  -3  -3  -3  119.15    4.39
   3   3   3  120.59    9.29
   3   3   3  120.87    7.96
  -4  -3  -3   35.46    5.57
   4   3   3   33.61    6.62
  -5  -3  -3   61.49    7.43
   5   3   3   56.87    9.22
   5   3   3   62.75    8.38
  -6  -3  -3    1.29    4.71
   6   3   3    7.01    5.97
   6   3   3   17.94    7.19
  -7  -3  -3    7.78    7.04
   7   3   3   13.50    8.14
   7   3   3    9.85    8.12
  -8  -3  -3    2.16    8.28
   8   3   3   10.63   11.74
   8   3   3   11.84   11.10
  11  -4  -3   -0.67    8.92
 -11   4   3  -14.49    7.72
  10  -4  -3    2.19    5.46
  10  -4  -3   20.70    9.38
 -10   4   3   -5.64    5.13
   9  -4  -3   16.93    6.43
   9  -4  -3   20.72    5.14
  -9   4   3   24.68    4.67
  -9   4   3   26.89    6.04
   8  -4  -3   -0.08    5.30
   8  -4  -3    7.85    3.99
  -8   4   3   13.98    4.38
  -8   4   3    0.25    3.24
   7  -4  -3   83.23    7.46
  -7   4   3   68.76    5.25
  -7   4   3   56.94    6.20
   6  -4  -3   59.15    5.82
   6  -4  -3   49.96    6.45
  -6   4   3   41.73    5.69
  -6   4   3   50.35    4.14
   5  -4  -3  415.41   14.88
   5  -4  -3  401.54   17.08
   5  -4  -3  414.78   16.43
  -5   4   3  414.30   16.05
  -5   4   3  416.14   13.58
   4  -4  -3  303.69   12.11
   4  -4  -3  299.41   13.68
  -4   4   3  315.12   11.08
  -4   4   3  308.46   12.52
   3  -4  -3   47.17    3.08
   3  -4  -3   49.53    3.86
   3  -4  -3   50.83    5.17
  -3   4   3   53.38    4.25
  -3   4   3   45.53    3.99
  -3   4   3   48.32    3.99
   2  -4  -3  101.05    6.51
   2  -4  -3   90.32    4.94
   2  -4  -3   91.83    4.15
  -2   4   3   91.57    5.72
  -2   4   3   88.63    5.74
   1  -4  -3  277.37    9.09
   1  -4  -3  268.27   11.46
  -1   4   3  263.26   11.30
  -1   4   3  256.97   11.46
  -1   4   3  274.94    8.97
   0  -4  -3  736.67   24.75
   0  -4  -3  732.20   22.81
   0   4   3  720.06   23.81
   0   4   3  738.18   25.03
   0   4   3  748.90   21.51
  -1  -4  -3   89.29    5.25
  -1  -4  -3   94.93    6.91
   1   4   3   87.06    5.54
   1   4   3   92.29    6.97
  -2  -4  -3  101.06    5.07
  -2  -4  -3  102.62    7.35
   2   4   3   93.82    8.11
   2   4   3  111.32    6.81
  -3  -4  -3   71.57    7.15
  -3  -4  -3   69.49    3.39
  -3  -4  -3   71.58    3.43
   3   4   3   68.80    6.76
   3   4   3   72.78    7.74
  -4  -4  -3  103.50    9.05
   4   4   3  107.30    8.99
   4   4   3   80.98    9.46
  -5  -4  -3   47.54    8.97
   5   4   3   49.40    8.90
   5   4   3   71.84    9.34
  -6  -4  -3  -11.16    6.28
   6   4   3    2.20    8.00
   6   4   3   17.56    7.46
  -7  -4  -3   11.25    8.05
   7   4   3   30.85   11.54
   7   4   3   36.27   17.91
  12  -5  -3    2.94    9.65
 -12   5   3   14.76   10.02
  11  -5  -3   -4.15    7.08
  11  -5  -3  -13.96    8.91
 -11   5   3   -0.59    6.79
  10  -5  -3    1.12    6.41
  10  -5  -3   -2.75    5.76
 -10   5   3   -3.07    5.02
   9  -5  -3   13.73    5.18
   9  -5  -3   -0.09    5.86
  -9   5   3    5.30    4.16
   8  -5  -3   33.59    6.75
   8  -5  -3   26.10    6.15
  -8   5   3   33.70    4.11
  -8   5   3   29.94    5.44
   7  -5  -3    8.73    4.19
   7  -5  -3   11.98    5.23
  -7   5   3   15.99    3.27
  -7   5   3   11.79    2.33
  -7   5   3   13.29    3.81
   6  -5  -3    3.59    2.77
   6  -5  -3    7.16    3.71
  -6   5   3    1.62    2.41
  -6   5   3    5.45    1.96
   5  -5  -3    4.54    3.11
   5  -5  -3    5.17    3.23
  -5   5   3    8.65    2.43
  -5   5   3    6.62    2.15
   4  -5  -3  105.36    6.76
   4  -5  -3  102.50    8.00
  -4   5   3   97.23    5.62
  -4   5   3   96.90    6.42
   3  -5  -3  188.73   10.46
   3  -5  -3  185.71    8.65
  -3   5   3  198.12    9.10
  -3   5   3  189.78    9.35
   2  -5  -3   76.38    5.37
   2  -5  -3   87.01    6.50
  -2   5   3   79.17    5.74
  -2   5   3   83.99    5.88
   1  -5  -3   29.72    4.09
  -1   5   3   25.39    4.31
  -1   5   3   30.31    2.91
  -1   5   3   19.89    3.26
   0  -5  -3   19.14    4.05
   0  -5  -3   16.34    3.31
   0   5   3   22.93    3.19
   0   5   3   24.85    4.25
  -1  -5  -3  110.11    6.26
  -1  -5  -3  110.06    8.02
   1   5   3   93.39    8.07
   1   5   3  100.19    6.42
  -2  -5  -3   45.29    5.65
  -2  -5  -3   53.39    3.98
   2   5   3   46.29    5.55
   2   5   3   33.62    7.08
  -3  -5  -3   36.81    3.19
  -3  -5  -3   43.46    6.85
   3   5   3   41.95    7.65
   3   5   3   42.82    6.12
  -4  -5  -3   19.70    5.69
   4   5   3   19.95    5.73
   4   5   3   22.25    7.05
   5   5   3   24.31    7.79
   5   5   3    1.49    7.25
  -6  -5  -3   11.27    8.85
   6   5   3    7.19    9.52
   6   5   3   18.67   18.58
  12  -6  -3    0.64   11.21
  12  -6  -3   -7.83    8.77
 -12   6   3   17.14    8.18
  11  -6  -3    3.01    7.58
  11  -6  -3  -12.51    9.26
 -11   6   3   13.69    7.42
  10  -6  -3    2.30    6.38
  10  -6  -3   -1.20    8.29
 -10   6   3   11.99    7.24
   9  -6  -3   20.87    7.54
   9  -6  -3    1.51    5.44
  -9   6   3    9.47    4.35
   8  -6  -3    2.43    4.83
   8  -6  -3    6.90    6.13
  -8   6   3    9.78    5.10
   7  -6  -3   62.15    4.97
   7  -6  -3   68.88    7.91
   7  -6  -3   77.27    8.22
  -7   6   3   65.96    6.98
  -7   6   3   57.35    3.85
   6  -6  -3  113.43    8.57
   6  -6  -3  113.16    9.52
  -6   6   3  107.03    5.53
  -6   6   3  112.05    8.18
   5  -6  -3    6.11    3.39
   5  -6  -3    3.36    3.54
  -5   6   3    1.04    2.72
  -5   6   3    6.51    2.19
   4  -6  -3   14.65    3.73
   4  -6  -3   14.70    3.77
  -4   6   3   20.45    3.32
  -4   6   3   18.36    4.00
   3  -6  -3   27.37    4.51
   3  -6  -3   24.05    4.37
  -3   6   3   28.17    4.17
  -3   6   3   33.69    4.37
   2  -6  -3  272.77   13.43
  -2   6   3  286.90   13.16
  -2   6   3  271.31   10.12
  -2   6   3  292.73   13.44
   1  -6  -3  253.25   11.98
  -1   6   3  237.69    9.63
  -1   6   3  210.69   11.49
  -1   6   3  237.15   12.24
   0  -6  -3   12.83    3.52
   0  -6  -3   14.75    4.24
   0   6   3   18.13    4.12
   0   6   3   23.51    3.77
  -1  -6  -3   29.97    4.24
  -1  -6  -3   37.45    5.92
   1   6   3   29.09    6.04
   1   6   3   34.97    5.06
  -2  -6  -3   37.00    4.29
  -2  -6  -3   35.05    5.95
   2   6   3   29.35    7.76
  -3  -6  -3   43.01    6.91
   3   6   3   43.54    7.16
   3   6   3   61.73    9.61
  -4  -6  -3    9.26    5.44
   4   6   3   -8.14    7.58
   4   6   3   10.26    6.93
   5   6   3   37.37   17.01
   5   6   3   24.39    9.60
  12  -7  -3  -13.82    9.96
  12  -7  -3    8.53    9.66
 -12   7   3   11.86   10.39
  11  -7  -3   12.18   10.65
  11  -7  -3  -12.39    6.85
 -11   7   3   -4.16    8.08
  10  -7  -3   -5.02    6.44
  10  -7  -3   14.61    9.53
 -10   7   3    0.74    6.35
   9  -7  -3   -1.45    5.59
   9  -7  -3    3.95    7.53
  -9   7   3    1.51    4.84
   8  -7  -3   10.28    7.00
   8  -7  -3    1.30    4.50
  -8   7   3    7.43    4.63
   7  -7  -3    4.77    4.51
  -7   7   3    0.42    3.58
  -7   7   3    0.29    2.42
   6  -7  -3   38.34    6.99
  -6   7   3   33.28    4.17
  -6   7   3   29.28    4.71
   5  -7  -3   95.87    8.01
   5  -7  -3  105.99    9.25
  -5   7   3  108.53    6.71
  -5   7   3   85.86    7.23
   4  -7  -3   43.50    5.86
   4  -7  -3   40.70    6.33
  -4   7   3   47.81    5.29
  -4   7   3   41.55    5.13
   3  -7  -3   12.91    4.25
   3  -7  -3   13.80    4.28
  -3   7   3    8.87    3.13
   2  -7  -3    0.24    3.15
  -2   7   3   -0.40    2.50
  -2   7   3    3.97    3.21
   1  -7  -3   24.61    4.53
  -1   7   3   28.14    4.53
  -1   7   3   19.22    5.25
  -1   7   3   24.20    4.45
   0  -7  -3   44.50    6.40
   0  -7  -3   49.15    5.76
   0   7   3   44.01    5.42
  -1  -7  -3   14.17    4.36
  -1  -7  -3    5.27    3.41
   1   7   3   11.72    5.05
   1   7   3    3.33    4.27
  -2  -7  -3   19.51    5.63
   2   7   3   12.28    5.47
   2   7   3   28.52    8.42
  -3  -7  -3    3.38    5.33
   3   7   3   -6.31    6.76
   3   7   3   14.15    7.05
  -4  -7  -3    6.69    6.59
   4   7   3   15.91   10.44
   4   7   3   -4.41    8.54
   5   7   3   13.26   10.85
  11  -8  -3   12.87   11.40
  11  -8  -3   18.41    8.49
 -11   8   3    3.24    8.02
  10  -8  -3   -0.35    8.93
  10  -8  -3   -6.48    6.45
 -10   8   3    0.53    6.86
   9  -8  -3   -6.82    5.91
   9  -8  -3   -6.06    8.25
  -9   8   3    7.67    5.83
   8  -8  -3   15.24    6.18
   8  -8  -3   22.41    7.30
  -8   8   3   14.64    5.05
   7  -8  -3   15.59    6.37
   7  -8  -3    5.35    5.49
  -7   8   3    3.14    2.89
  -7   8   3    4.23    4.42
   6  -8  -3    5.17    5.06
   6  -8  -3   12.13    5.75
  -6   8   3   10.45    3.26
  -6   8   3    6.40    3.87
   5  -8  -3    9.00    4.85
   5  -8  -3   10.27    4.87
  -5   8   3    6.08    3.48
  -5   8   3    6.20    3.54
   4  -8  -3   55.41    7.53
   4  -8  -3   70.67    7.45
  -4   8   3   61.93    6.76
  -4   8   3   68.73    6.69
   3  -8  -3   89.62    9.03
   3  -8  -3   88.56    8.50
  -3   8   3   99.69    8.31
  -3   8   3   94.96    8.32
   2  -8  -3   13.68    5.13
  -2   8   3   14.82    5.30
  -2   8   3   15.41    3.69
  -2   8   3   19.47    4.29
   1  -8  -3   15.70    5.32
  -1   8   3   13.17    4.13
  -1   8   3   18.04    5.04
   0  -8  -3   11.85    4.85
   0  -8  -3   12.66    4.17
   0   8   3   11.04    6.17
   0   8   3   10.24    4.48
  -1  -8  -3   17.17    4.22
  -1  -8  -3   24.54    7.20
   1   8   3   22.06    5.45
   1   8   3   28.98    7.24
  -2  -8  -3   15.33    6.93
   2   8   3   16.58    7.97
   2   8   3   13.91    6.83
  -3  -8  -3    1.14    8.03
   3   8   3   -1.46   10.25
   3   8   3    4.69    8.17
   4   8   3   21.90   15.96
  11  -9  -3   -1.48   10.41
  11  -9  -3   19.53   12.36
 -11   9   3  -13.00    7.50
  10  -9  -3   -0.98   11.39
  10  -9  -3    5.06    6.79
 -10   9   3  -10.94    7.17
   9  -9  -3   -3.81    8.98
   9  -9  -3    1.67    6.35
  -9   9   3    8.50    6.56
   8  -9  -3  -10.31    7.83
   8  -9  -3    0.00    5.61
  -8   9   3   -3.34    5.47
   7  -9  -3   29.08    8.19
   7  -9  -3   12.01    6.23
  -7   9   3   15.42    4.95
   6  -9  -3   27.52    6.92
   6  -9  -3   23.84    6.67
  -6   9   3   28.18    5.85
  -6   9   3   18.69    4.33
   5  -9  -3   10.00    5.85
   5  -9  -3   10.15    5.92
  -5   9   3    1.86    4.18
  -5   9   3    9.34    4.52
   4  -9  -3   -3.19    4.42
   4  -9  -3    7.33    5.83
  -4   9   3    8.59    4.53
  -4   9   3    7.32    5.12
   3  -9  -3   13.80    6.03
   3  -9  -3   21.94    6.72
  -3   9   3   22.90    5.55
  -3   9   3   19.63    5.63
   2  -9  -3   33.53    6.82
  -2   9   3   40.69    6.38
  -2   9   3   45.72    8.55
  -2   9   3   34.30    6.69
   1  -9  -3    7.47    5.03
   1  -9  -3   15.02    5.88
  -1   9   3   14.73    7.16
   0  -9  -3   15.20    7.12
   0  -9  -3   -0.38    5.27
   0   9   3    7.45    6.71
   0   9   3   10.39    6.20
  -1  -9  -3    4.96    6.83
   1   9   3   10.70    7.57
   1   9   3   -1.30    6.23
   2   9   3   17.84   13.13
   2   9   3   -1.53    7.89
  11 -10  -3   -1.01   13.95
  11 -10  -3   -2.22    9.52
 -11  10   3  -14.50    9.22
  10 -10  -3    5.32    8.64
  10 -10  -3    6.92   11.44
 -10  10   3   -2.19    7.95
   9 -10  -3   13.66   10.54
   9 -10  -3   -3.33    6.70
  -9  10   3    6.83    7.26
   8 -10  -3   18.01    8.65
   8 -10  -3   -0.88    6.03
  -8  10   3   -7.88    6.09
   7 -10  -3   -9.21    7.95
   7 -10  -3   -0.26    6.02
  -7  10   3   -5.51    5.13
   6 -10  -3   21.54    8.79
   6 -10  -3   15.59    6.83
  -6  10   3   16.02    5.81
  -6  10   3   14.80    5.49
   5 -10  -3   12.80    6.28
   5 -10  -3   22.58    9.10
  -5  10   3   13.33    5.80
   4 -10  -3    3.10    6.65
   4 -10  -3    4.51    7.22
  -4  10   3    3.06    5.85
  -4  10   3    7.42    6.05
   3 -10  -3    9.11    5.84
  -3  10   3    1.73    6.17
  -3  10   3   13.15    6.17
   2 -10  -3    0.16    8.87
   2 -10  -3    8.82    6.52
   2 -10  -3    2.63    6.43
  -2  10   3   -2.39    7.57
  -2  10   3   -5.75    5.75
   1 -10  -3    8.24    6.70
   1 -10  -3    3.39    6.85
  -1  10   3    2.48    8.23
   0 -10  -3    9.23    8.15
   0  10   3   15.89    8.98
  -1 -10  -3   -3.35    9.13
   1  10   3    0.22   11.72
  10 -11  -3  -15.12   12.72
  10 -11  -3  -11.17    8.09
 -10  11   3   15.89    9.15
   9 -11  -3    3.55   10.79
   9 -11  -3    1.65    8.80
  -9  11   3   -4.23    7.17
   8 -11  -3   -0.95   10.07
   8 -11  -3   -7.74    8.07
  -8  11   3    4.98    7.61
   7 -11  -3   17.58    9.61
   7 -11  -3   -7.44    6.78
  -7  11   3    4.53    6.40
   6 -11  -3    3.13    6.67
   6 -11  -3   10.74    8.89
  -6  11   3    2.82    6.29
   5 -11  -3   19.81    9.49
   5 -11  -3    6.52    6.76
  -5  11   3    5.01    7.02
  -5  11   3   10.93    6.84
   4 -11  -3    5.81    7.14
  -4  11   3   26.05    8.04
  -4  11   3    0.25    7.21
   3 -11  -3   -1.10    7.06
  -3  11   3   -3.87    8.53
  -3  11   3   -3.32    6.29
   2 -11  -3   -0.29    7.31
   2 -11  -3   10.07    6.80
  -2  11   3   14.67   10.10
   1 -11  -3   -6.50    8.21
   9 -12  -3   18.54    9.92
  -9  12   3   18.68    9.46
   8 -12  -3   -7.83    7.96
   7 -12  -3    2.88    8.57
  -7  12   3    9.91    7.24
   6 -12  -3   -1.60   14.13
  -6  12   3    1.34   13.22
   5 -12  -3   -1.14    8.63
  -5  12   3    4.46    8.37
  -4  12   3   -8.68    8.86
  -4  12   3    3.86    7.54
   3 -12  -3    5.40    8.09
   3 -12  -3   11.65    9.22
  -3  12   3   24.84   10.66
  -2  13  -4   -9.85    7.25
   2 -13   4    9.39   10.91
   2 -13   4   19.93    9.34
  -3  13  -4   -8.71    6.30
   3 -13   4   24.48    9.08
   3 -13   4    4.18   10.18
   3 -13   4   -9.99   12.91
  -4  13  -4   11.06    7.62
  -4  13  -4    8.25    7.37
   4 -13   4    1.05   13.66
   4 -13   4   10.58   11.28
  -5  13  -4    4.67   11.65
  -5  13  -4   20.05    8.16
   5 -13   4   -7.35   11.75
  -6  13  -4    9.55    7.74
  -6  13  -4    2.35    7.24
   6 -13   4   11.26   12.99
  -7  13  -4   -1.13    8.00
  -7  13  -4    2.56    6.79
   7 -13   4    5.35   14.58
  -8  13  -4   -4.45    8.57
  -8  13  -4  -10.05    7.06
   8 -13   4  -17.38   12.89
   0  12  -4    4.86   15.61
   0 -12   4   -0.09    8.17
   0 -12   4   -1.45   10.86
  -1  12  -4   -2.43    6.56
  -1  12  -4  -13.78    9.67
   1 -12   4    4.13   10.21
   1 -12   4    7.47    8.20
  -2  12  -4   13.75    8.48
  -2  12  -4   12.36    6.34
   2 -12   4    8.37    9.63
  -3  12  -4    7.60    6.17
  -3  12  -4    9.10    5.85
   3 -12   4   10.09   11.74
   3 -12   4    4.28    8.44
  -4  12  -4   15.91    6.75
  -4  12  -4    7.89    5.20
   4 -12   4    4.70   12.22
   4 -12   4    7.87    7.71
  -5  12  -4    0.66    5.90
  -5  12  -4   -6.53    5.10
   5 -12   4    3.17    9.71
  -6  12  -4   -1.53    5.66
  -6  12  -4   -0.67    6.44
   6 -12   4    2.60   10.96
  -7  12  -4    1.84    6.70
  -7  12  -4    0.56    6.74
   7 -12   4   -5.29   11.20
  -8  12  -4   10.82    7.42
  -8  12  -4    4.35    7.51
   8 -12   4    4.46   11.99
  -9  12  -4    8.27    8.61
  -9  12  -4   -4.23    6.86
   2  11  -4    5.10   11.62
  -2 -11   4   -2.60    8.14
  -2 -11   4    2.73   11.99
   1  11  -4    8.15    9.37
   0  11  -4    0.68    8.41
   0 -11   4   -1.87    9.27
   0 -11   4   -0.86    6.55
  -1  11  -4   11.05    6.83
  -1  11  -4    2.09    4.93
   1 -11   4   26.43    7.20
   1 -11   4    1.48    8.13
  -2  11  -4   19.15    6.92
  -2  11  -4   34.89    6.17
   2 -11   4    7.90    7.75
   2 -11   4    6.98    6.01
  -3  11  -4   -3.97    4.71
  -3  11  -4    1.59    4.99
   3 -11   4   -3.64    7.06
   3 -11   4    4.04    9.56
  -4  11  -4   13.63    4.68
  -4  11  -4   15.72    5.51
   4 -11   4   14.83   10.11
   4 -11   4   11.65    6.64
  -5  11  -4    8.34    4.87
  -5  11  -4    4.54    5.06
   5 -11   4   -7.44    9.15
   5 -11   4   -1.28    5.13
  -6  11  -4   19.47    5.54
  -6  11  -4   14.31    5.99
   6 -11   4   12.12    8.34
  -7  11  -4    1.62    5.96
  -7  11  -4    4.23    5.52
   7 -11   4   -7.19    9.25
  -8  11  -4    4.18    6.53
  -8  11  -4    1.99    6.56
   8 -11   4   14.80    8.98
  -9  11  -4   -1.14    6.66
  -9  11  -4    6.76    7.74
   9 -11   4    8.50   10.55
 -10  11  -4   17.53    7.70
 -10  11  -4   10.77   14.56
  10 -11   4   -6.34   10.25
   3  10  -4   29.56   11.42
  -3 -10   4    7.66   12.71
  -3 -10   4   -1.82    6.79
   2  10  -4   -3.03    9.20
  -2 -10   4    6.85    6.57
   1  10  -4    7.42    5.32
   1  10  -4    1.35    7.42
  -1 -10   4   10.19    6.09
  -1 -10   4   -8.42    7.94
   0  10  -4   14.53    4.81
   0  10  -4   32.69    8.39
   0 -10   4   21.16    8.12
  -1  10  -4   14.62    6.66
  -1  10  -4   13.97    4.62
   1 -10   4   14.07    7.13
   1 -10   4    9.63    5.03
  -2  10  -4   51.91    7.32
  -2  10  -4   50.96    7.51
  -2  10  -4   55.78    7.08
   2 -10   4   49.51    8.52
  -3  10  -4    8.52    3.61
  -3  10  -4   10.42    4.39
   3 -10   4    2.86    5.47
   3 -10   4    8.44    6.90
  -4  10  -4    4.18    3.95
  -4  10  -4   12.93    4.18
   4 -10   4    3.76    7.71
   4 -10   4    3.59    4.90
  -5  10  -4   -1.31    4.14
  -5  10  -4    2.58    4.05
   5 -10   4   -6.93    4.41
   5 -10   4   -1.38    7.14
  -6  10  -4   24.34    5.85
  -6  10  -4   10.00    4.60
   6 -10   4   13.93    8.14
  -7  10  -4    4.37    4.82
  -7  10  -4    9.18    5.63
   7 -10   4   -3.80    8.27
  -8  10  -4   -0.52    5.85
  -8  10  -4    2.83    5.04
   8 -10   4   23.30    9.27
  -9  10  -4   -0.60    5.44
  -9  10  -4    8.08    6.32
   9 -10   4    4.91    9.13
 -10  10  -4    6.41   11.53
 -10  10  -4    6.01    7.23
  10 -10   4   -5.33    9.91
   4   9  -4   21.98   13.49
  -4  -9   4    6.07    7.03
  -4  -9   4   20.01   14.24
   3   9  -4   10.70    8.26
  -3  -9   4    3.05    5.90
  -3  -9   4   12.47    8.88
   2   9  -4   13.70    7.27
  -2  -9   4   15.89    5.31
  -2  -9   4    4.87    8.91
   1   9  -4    8.66    5.40
   1   9  -4    7.91    3.73
  -1  -9   4   14.16    6.42
  -1  -9   4   14.31    4.92
   0   9  -4   72.90    8.35
   0   9  -4   60.73    6.40
   0  -9   4   56.53    7.69
   0  -9   4   66.91    9.32
  -1   9  -4    7.32    3.27
  -1   9  -4   -0.25    4.48
   1  -9   4   -3.97    4.81
  -2   9  -4   10.88    3.45
  -2   9  -4    8.30    4.10
   2  -9   4    8.56    5.32
  -3   9  -4   17.78    4.05
   3  -9   4    7.24    6.50
   3  -9   4   16.59    5.11
  -4   9  -4   48.38    5.20
  -4   9  -4   47.95    5.46
   4  -9   4   51.32   11.16
   4  -9   4   38.11    5.72
  -5   9  -4   11.20    3.98
  -5   9  -4   15.56    4.20
   5  -9   4   10.60    3.66
  -6   9  -4    7.97    3.67
  -6   9  -4   12.18    4.10
   6  -9   4    5.19    7.28
  -7   9  -4    4.76    4.08
  -7   9  -4    8.58    5.00
   7  -9   4    1.19    6.38
  -8   9  -4    7.74    5.16
  -8   9  -4    3.44    4.85
   8  -9   4    5.30    8.14
  -9   9  -4   14.37    6.13
  -9   9  -4    7.03    6.36
   9  -9   4   16.62    8.99
 -10   9  -4    0.27    7.61
 -10   9  -4   -7.80    6.41
 -11   9  -4   18.23    9.48
 -11   9  -4   12.71   15.18
  11  -9   4  -12.62   12.86
  -5  -8   4   28.12   14.80
  -5  -8   4   14.66    7.97
   4   8  -4   22.77    9.16
  -4  -8   4    8.30   10.35
  -4  -8   4   18.30    6.58
   3   8  -4    2.22    6.87
  -3  -8   4   10.95    5.22
  -3  -8   4   15.59    8.26
   2   8  -4   28.68    4.07
   2   8  -4   26.98    7.16
  -2  -8   4   12.29    6.41
  -2  -8   4   24.86    5.39
   1   8  -4   22.73    3.93
   1   8  -4   24.59    6.38
  -1  -8   4   37.69    6.96
  -1  -8   4   37.56    5.32
   0   8  -4  157.34    8.79
   0   8  -4  154.94   10.65
   0  -8   4  168.07    9.46
   0  -8   4  146.88   12.03
  -1   8  -4   52.26    6.20
  -1   8  -4   34.79    7.05
  -1   8  -4   45.06    4.72
   1  -8   4   40.13    7.87
  -2   8  -4   14.80    4.24
  -2   8  -4   12.01    3.44
   2  -8   4   14.59    4.53
  -3   8  -4    5.44    2.83
  -3   8  -4    7.98    3.11
   3  -8   4    0.19    5.78
   3  -8   4    2.78    3.54
  -4   8  -4   43.06    5.23
  -4   8  -4   51.54    5.19
   4  -8   4   56.36    8.12
  -5   8  -4   60.47    6.26
  -5   8  -4   61.25    5.64
   5  -8   4   64.82    4.28
   5  -8   4   64.72   10.08
   5  -8   4   67.66    4.80
  -6   8  -4   30.00    5.11
  -6   8  -4   37.18    5.60
   6  -8   4   31.34    7.94
  -7   8  -4    1.26    4.19
  -7   8  -4    1.69    3.60
   7  -8   4   -2.00    6.13
  -8   8  -4    8.29    4.46
  -8   8  -4   11.18    4.75
   8  -8   4   -2.17    7.42
  -9   8  -4   12.40    6.44
  -9   8  -4   12.48    5.24
   9  -8   4   12.00    8.91
 -10   8  -4   14.65    7.83
 -10   8  -4   -0.72    6.27
  10  -8   4   -3.47    8.91
 -11   8  -4   -9.15    7.19
 -11   8  -4   10.97    8.68
  11  -8   4  -16.71   10.85
   6   7  -4    0.76    9.64
  -6  -7   4    4.56   13.48
  -6  -7   4    0.27    8.28
   5   7  -4    5.78    7.84
  -5  -7   4   -1.26    6.10
  -5  -7   4  -12.07    9.34
   4   7  -4    6.69    6.10
  -4  -7   4   -0.83    7.27
  -4  -7   4    7.63    5.06
   3   7  -4   20.76    3.76
   3   7  -4   15.68    6.19
  -3  -7   4   13.19    6.72
   2   7  -4  199.82   12.05
   2   7  -4  199.56    9.01
  -2  -7   4  222.56   15.72
  -2  -7   4  193.62   10.69
   1   7  -4   -2.79    3.30
   1   7  -4    2.68    2.42
  -1  -7   4   -3.12    4.33
  -1  -7   4    3.03    2.83
   0   7  -4   20.29    3.38
   0   7  -4   21.86    4.03
   0  -7   4   26.67    4.02
  -1   7  -4   92.83    5.81
  -1   7  -4   91.98    7.91
  -1   7  -4  103.07    6.61
   1  -7   4   98.89    8.06
  -2   7  -4   91.59    6.56
  -2   7  -4   96.02    7.12
  -2   7  -4  104.39    5.96
   2  -7   4  106.12    7.82
  -3   7  -4   46.69    4.29
  -3   7  -4   39.20    8.20
   3  -7   4   36.19    6.46
   3  -7   4   48.06    5.13
  -4   7  -4   -0.07    2.30
  -4   7  -4    4.32    2.35
   4  -7   4    0.94    4.39
   4  -7   4   -1.83    2.37
  -5   7  -4   42.60    5.12
  -5   7  -4   49.19    5.10
   5  -7   4   38.04    2.82
   5  -7   4   43.02    4.15
   5  -7   4   33.25    6.41
  -6   7  -4   17.16    3.94
  -6   7  -4   15.09    3.99
   6  -7   4   27.74    7.86
  -7   7  -4   14.63    4.10
  -7   7  -4   14.89    4.28
  -8   7  -4    6.03    4.01
  -8   7  -4   12.05    4.75
   8  -7   4    2.33    6.75
  -9   7  -4   -8.98    5.89
  -9   7  -4   -6.86    4.67
   9  -7   4   16.00    8.16
 -10   7  -4    0.53    6.17
 -10   7  -4    0.02    7.28
  10  -7   4   16.14   11.36
 -11   7  -4   -4.67    8.37
 -11   7  -4   15.17    8.99
  11  -7   4   -3.11   13.23
   7   6  -4   18.50   11.27
  -7  -6   4   24.82    9.49
  -7  -6   4   -4.89   14.66
   6   6  -4   32.32    9.35
  -6  -6   4   24.16    7.07
  -6  -6   4   39.04   11.85
   5   6  -4    4.39    7.42
  -5  -6   4   17.38    5.78
  -5  -6   4   17.77    9.41
   4   6  -4   44.15    6.70
  -4  -6   4   44.36    9.18
  -4  -6   4   37.37    6.53
   3   6  -4   35.62    6.45
   3   6  -4   44.00    3.86
  -3  -6   4   41.18    5.18
  -3  -6   4   36.58    7.65
   2   6  -4  256.46   13.35
   2   6  -4  265.72   10.34
  -2  -6   4  264.26   11.74
   1   6  -4  168.72    8.06
  -1  -6   4  160.07    8.07
   0   6  -4    6.27    3.69
   0   6  -4    9.85    2.24
   0  -6   4   19.69    4.61
  -1   6  -4  108.66    6.46
  -1   6  -4   95.10    6.70
  -1   6  -4  110.42    5.65
   1  -6   4   95.17    7.28
  -2   6  -4   67.03    5.19
  -2   6  -4   62.85    5.64
  -2   6  -4   61.70    4.06
   2  -6   4   55.37    5.54
  -3   6  -4  378.66   15.12
  -3   6  -4  378.75   13.33
   3  -6   4  381.52   17.99
   3  -6   4  394.45   14.04
  -4   6  -4  132.85    7.15
  -4   6  -4  140.58    8.24
   4  -6   4  131.30    6.00
   4  -6   4  128.89    5.72
   4  -6   4  123.20    9.77
  -5   6  -4    3.58    2.50
   5  -6   4   -1.51    3.95
   5  -6   4    4.29    1.12
  -6   6  -4   12.36    3.81
  -6   6  -4   16.85    3.65
   6  -6   4   14.80    6.64
  -7   6  -4   21.26    3.82
  -7   6  -4   17.29    4.47
   7  -6   4   12.84    5.58
  -8   6  -4   21.85    4.56
  -8   6  -4   38.45    6.41
   8  -6   4   32.65    8.31
  -9   6  -4   18.45    6.31
 -10   6  -4   12.50    6.37
 -10   6  -4   -2.82    5.72
  10  -6   4   -1.52    8.86
 -11   6  -4   15.08    8.68
 -11   6  -4    7.87    9.15
  11  -6   4    9.29   12.29
   8   5  -4   -0.21   10.96
  -8  -5   4   22.67   21.46
  -8  -5   4    3.23    8.71
   7   5  -4    8.15    9.74
  -7  -5   4   -9.06    6.65
  -7  -5   4    9.36   12.11
   6   5  -4   -9.28    6.82
  -6  -5   4  -13.40    8.72
  -6  -5   4   -2.45    5.81
   5   5  -4   22.74    6.63
  -5  -5   4   33.61    7.85
  -5  -5   4   29.74    6.03
   4   5  -4  177.79    6.42
   4   5  -4  161.85   11.25
  -4  -5   4  185.31   14.44
  -4  -5   4  169.27   10.13
   3   5  -4    6.08    3.90
   3   5  -4    2.84    1.79
  -3  -5   4   -4.89    2.70
   2   5  -4   46.89    3.74
   2   5  -4   46.73    5.48
  -2  -5   4   50.30    7.63
  -2  -5   4   42.28    4.20
   1   5  -4  191.38    9.97
   1   5  -4  195.26    8.32
  -1  -5   4  194.41   11.49
  -1  -5   4  192.96    8.12
   0   5  -4  139.88    8.04
   0   5  -4  134.65    6.91
   0  -5   4  142.40    8.84
   0  -5   4  139.33    6.13
  -1   5  -4  142.52    7.28
  -1   5  -4  140.87    7.59
  -1   5  -4  149.38    5.88
   1  -5   4  143.01    8.38
   1  -5   4  132.99    5.62
  -2   5  -4   41.62    3.92
  -2   5  -4   45.65    3.16
   2  -5   4   42.39    5.52
   2  -5   4   38.40    4.08
  -3   5  -4   55.56    3.87
  -3   5  -4   53.59    4.65
  -3   5  -4   45.99    4.16
   3  -5   4   59.55    6.52
   3  -5   4   53.90    4.11
  -4   5  -4   96.35    4.82
  -4   5  -4  100.28    5.93
  -4   5  -4   94.23    6.27
   4  -5   4   95.22    4.48
   4  -5   4   87.31    7.70
  -5   5  -4   86.69    4.19
  -5   5  -4   97.97    6.65
  -5   5  -4   81.63    6.07
   5  -5   4   97.59    9.99
  -6   5  -4   40.71    4.42
  -6   5  -4   35.77    3.17
  -6   5  -4   41.89    5.26
   6  -5   4   37.98    6.30
  -7   5  -4    9.32    4.32
  -7   5  -4   13.49    3.80
   7  -5   4    0.20    5.28
  -8   5  -4    7.63    3.77
  -8   5  -4    1.86    4.96
   8  -5   4    2.20    6.67
  -9   5  -4    0.51    5.43
  -9   5  -4    5.81    4.44
   9  -5   4   -9.28    7.14
 -10   5  -4   -1.94    7.59
 -10   5  -4    7.71    5.14
  10  -5   4    1.91    9.06
 -11   5  -4   18.83    9.04
  11  -5   4    7.35   13.30
   8   4  -4   38.34   11.41
  -8  -4   4   33.42   13.82
  -8  -4   4   43.75    8.41
   7   4  -4   24.91    8.87
  -7  -4   4   20.21   10.91
  -7  -4   4   13.93    6.59
   6   4  -4   81.38    9.48
  -6  -4   4   87.50    8.44
  -6  -4   4   82.91   12.07
   5   4  -4   75.50    8.78
  -5  -4   4   68.02    6.95
  -5  -4   4   68.62   10.04
   4   4  -4  476.39   13.59
   4   4  -4  442.31   19.61
  -4  -4   4  442.83   21.64
  -4  -4   4  477.72   17.41
  -4  -4   4  452.47   13.91
   3   4  -4  553.50   16.34
   3   4  -4  532.64   21.06
  -3  -4   4  564.09   23.90
  -3  -4   4  560.86   18.89
   2   4  -4  122.86    5.67
   2   4  -4  107.92    7.62
  -2  -4   4  125.32    9.48
  -2  -4   4  119.19    6.06
   1   4  -4  228.85    8.72
   1   4  -4  221.16   10.04
  -1  -4   4  210.87    7.88
  -1  -4   4  200.56    7.49
  -1  -4   4  211.88   11.41
   0   4  -4   13.65    2.67
   0   4  -4   11.18    2.12
   0  -4   4   11.96    1.68
   0  -4   4    8.71    3.12
   0  -4   4   16.34    1.66
  -1   4  -4  742.57   19.45
  -1   4  -4  721.19   22.37
  -1   4  -4  704.57   21.73
   1  -4   4  713.68   19.34
   1  -4   4  706.73   22.95
  -2   4  -4  571.89   16.50
  -2   4  -4  618.45   18.94
   2  -4   4  536.72   16.50
   2  -4   4  559.81   17.96
   2  -4   4  560.55   21.30
  -3   4  -4   41.54    3.62
  -3   4  -4   47.19    3.88
  -3   4  -4   50.97    3.89
   3  -4   4   45.92    5.29
   3  -4   4   47.64    3.38
  -4   4  -4   62.13    4.85
  -4   4  -4   57.85    3.87
  -4   4  -4   59.76    4.78
   4  -4   4   61.35    3.57
   4  -4   4   60.23    6.03
  -5   4  -4   22.55    4.22
  -5   4  -4   17.67    3.32
  -5   4  -4   22.40    3.63
   5  -4   4   24.27    2.60
   5  -4   4   29.00    6.46
  -6   4  -4  146.25    9.10
  -6   4  -4  149.50    8.32
   6  -4   4  138.39   11.16
   6  -4   4  152.89    6.68
  -7   4  -4   78.96    7.51
  -7   4  -4   82.41    6.42
   7  -4   4   93.92    9.91
   7  -4   4   87.65    5.84
  -8   4  -4    5.35    5.85
  -8   4  -4    6.89    4.85
   8  -4   4    4.67    3.55
   8  -4   4    1.68    7.43
  -9   4  -4    8.83    5.78
  -9   4  -4    1.32    4.34
   9  -4   4    7.15    7.98
 -10   4  -4   -4.91    7.24
  10  -4   4   -5.48   16.77
   9   3  -4    3.59    9.41
  -9  -3   4    9.42    8.20
  -9  -3   4   24.59   16.82
   8   3  -4    8.00    7.39
  -8  -3   4   -4.17   11.82
  -8  -3   4   26.38    9.99
   7   3  -4   15.19    6.15
  -7  -3   4   11.28    8.35
  -7  -3   4   19.91    6.04
   6   3  -4   53.92    7.76
  -6  -3   4   33.63    6.28
  -6  -3   4   52.66    9.23
   5   3  -4   -2.29    1.30
   5   3  -4    4.40    3.73
  -5  -3   4   -2.93    3.04
  -5  -3   4    0.55    4.28
  -5  -3   4   -1.84    2.03
   4   3  -4   28.43    2.56
  -4  -3   4   32.74    4.06
  -4  -3   4   36.58    6.33
  -4  -3   4   34.96    3.36
   3   3  -4  115.13    7.54
   3   3  -4  124.80    5.29
  -3  -3   4  120.54    8.60
  -3  -3   4  103.65    6.18
   2   3  -4  179.07    8.93
   2   3  -4  182.79    7.15
  -2  -3   4  181.72   10.22
  -2  -3   4  185.52    7.28
   1   3  -4  208.13    8.07
   1   3  -4  210.81    9.23
  -1  -3   4  213.47    6.74
  -1  -3   4  206.56   10.41
  -1  -3   4  210.21    6.88
   0   3  -4   21.13    2.22
   0   3  -4   21.04    2.50
   0  -3   4   18.32    1.17
   0  -3   4   15.29    3.04
   0  -3   4   17.75    1.10
  -1   3  -4   75.91    4.57
  -1   3  -4   73.42    4.58
   1  -3   4   81.89    3.31
   1  -3   4   83.21    5.05
  -2   3  -4  323.44   11.34
  -2   3  -4  311.70   10.43
  -2   3  -4  327.29   11.79
   2  -3   4  313.56   13.58
   2  -3   4  336.04   11.33
   2  -3   4  315.95   10.46
  -3   3  -4  306.49   11.25
  -3   3  -4  283.93   10.79
  -3   3  -4  285.13   10.29
   3  -3   4  302.03   13.75
   3  -3   4  291.04   10.08
  -4   3  -4   57.89    4.53
  -4   3  -4   61.77    4.29
   4  -3   4   58.28    3.83
   4  -3   4   58.54    6.48
  -5   3  -4   20.67    3.21
  -5   3  -4   22.93    3.83
   5  -3   4   22.75    5.56
   5  -3   4   21.07    2.99
  -6   3  -4   18.40    3.37
  -6   3  -4   10.26    2.99
   6  -3   4   16.32    5.10
   6  -3   4   24.99    3.93
  -7   3  -4   35.33    4.53
  -7   3  -4   33.46    6.36
   7  -3   4   42.52    8.39
   7  -3   4   44.03    5.35
  -8   3  -4   20.97    6.08
  -8   3  -4   14.60    3.74
   8  -3   4   25.75    5.22
   8  -3   4   18.78    7.06
  -9   3  -4    9.36    6.62
   9  -3   4    4.83    7.77
 -10   3  -4    4.30    8.22
  10  -3   4   27.25   11.36
 -10  -2   4   21.96   17.87
   9   2  -4    9.76   14.42
  -9  -2   4   -7.41    7.12
  -9  -2   4   23.32   13.21
   8   2  -4   44.01    8.31
  -8  -2   4   53.22    9.09
  -8  -2   4   74.44   12.42
   7   2  -4   55.83    8.43
  -7  -2   4   37.68    6.64
  -7  -2   4   44.58   10.08
   6   2  -4  290.45    9.18
   6   2  -4  273.80   15.33
  -6  -2   4  300.20   17.38
  -6  -2   4  276.51   13.40
   5   2  -4  418.39   12.59
   5   2  -4  423.44   18.30
  -5  -2   4  418.44   16.07
  -5  -2   4  376.44   21.43
  -5  -2   4  382.03   12.98
   4   2  -4  292.63    9.78
   4   2  -4  287.99   13.40
  -4  -2   4  296.44   11.80
  -4  -2   4  277.89   14.44
   3   2  -4  355.87   11.19
   3   2  -4  336.63   13.66
  -3  -2   4  328.30   15.29
  -3  -2   4  336.33   11.90
   2   2  -4  467.79   14.20
   2   2  -4  492.12   14.82
   2   2  -4  488.63   16.60
  -2  -2   4  494.69   18.68
  -2  -2   4  488.12   14.30
   1   2  -4  728.82   21.57
   1   2  -4  729.27   18.58
   1   2  -4  723.61   20.67
  -1  -2   4  731.20   18.54
  -1  -2   4  709.31   23.28
   0   2  -4 1977.62   50.60
   0   2  -4 1998.78   50.83
   0  -2   4 1867.52   51.99
  -1   2  -4  539.00   16.04
  -1   2  -4  515.00   14.32
  -1   2  -4  464.24   15.96
   1  -2   4  503.19   17.48
   1  -2   4  529.33   16.41
   1  -2   4  527.96   14.37
  -2   2  -4  448.09   14.25
  -2   2  -4  444.08   13.90
  -2   2  -4  433.52   14.39
   2  -2   4  433.50   14.14
   2  -2   4  431.44   16.23
  -3   2  -4   66.04    4.56
  -3   2  -4   61.14    4.14
   3  -2   4   57.50    4.12
   3  -2   4   63.94    5.79
  -4   2  -4  453.39   16.77
  -4   2  -4  442.45   14.86
   4  -2   4  463.43   15.38
   4  -2   4  445.77   18.57
  -5   2  -4  441.73   15.29
  -5   2  -4  468.21   18.31
   5  -2   4  461.35   16.22
   5  -2   4  482.80   20.60
  -6   2  -4   36.87    5.30
  -6   2  -4   45.56    4.30
   6  -2   4   37.00    6.78
   6  -2   4   47.26    5.21
  -7   2  -4   44.18    4.44
  -7   2  -4   41.09    7.85
   7  -2   4   50.18    7.68
   7  -2   4   34.23    6.00
  -8   2  -4    3.81    3.52
  -8   2  -4   11.00    5.93
   8  -2   4    7.08    6.63
   8  -2   4    5.20    5.16
  -9   2  -4   55.66   10.01
   9  -2   4   47.30    9.45
   9  -2   4   34.26   10.98
 -10   2  -4    6.11    7.57
  10  -2   4    0.64   10.15
  10   1  -4   22.02   12.97
 -10  -1   4   12.14   10.84
 -10  -1   4    6.48   13.91
   9   1  -4    0.02    6.60
  -9  -1   4    4.71    7.03
  -9  -1   4   29.49   10.79
   8   1  -4   11.61    6.29
  -8  -1   4   -1.52    5.44
  -8  -1   4    1.11    7.39
   7   1  -4    4.10    4.56
  -7  -1   4   -1.60    3.91
  -7  -1   4    2.64    5.61
   6   1  -4   15.68    2.86
   6   1  -4   16.09    4.38
  -6  -1   4   13.17    4.61
   5   1  -4   64.48    6.47
   5   1  -4   57.70    3.88
  -5  -1   4   56.75    4.85
  -5  -1   4   55.39    6.07
   4   1  -4  167.87    6.96
   4   1  -4  163.51    9.23
  -4  -1   4  166.36    7.86
  -4  -1   4  163.80    9.82
   3   1  -4  255.02    9.47
   3   1  -4  271.11   11.23
  -3  -1   4  266.58   12.21
  -3  -1   4  276.15    9.77
   2   1  -4   22.18    2.41
   2   1  -4   25.04    2.07
   2   1  -4   22.72    2.56
  -2  -1   4   26.40    3.42
  -2  -1   4   23.58    2.09
   1   1  -4  400.70   12.67
   1   1  -4  411.57   12.63
   1   1  -4  412.78   10.88
  -1  -1   4  390.80   14.22
  -1  -1   4  392.83   10.83
   0   1  -4  852.16   21.27
   0   1  -4  846.37   23.09
   0   1  -4  812.02   21.36
   0   1  -4  828.67   22.35
   0  -1   4  775.89   22.27
   0  -1   4  806.22   24.10
  -1   1  -4  668.65   19.01
  -1   1  -4  653.74   18.51
   1  -1   4  637.45   19.70
   1  -1   4  642.43   20.12
   1  -1   4  664.53   18.60
  -2   1  -4  260.49   10.10
  -2   1  -4  274.40    9.60
   2  -1   4  273.47   11.46
   2  -1   4  274.87   10.50
  -3   1  -4   41.05    3.90
  -3   1  -4   43.93    3.21
   3  -1   4   46.34    4.77
   3  -1   4   44.07    3.85
  -4   1  -4    3.01    1.48
  -4   1  -4    2.64    2.52
   4  -1   4    1.18    2.03
   4  -1   4    1.29    3.67
  -5   1  -4  113.45    8.06
  -5   1  -4  122.83    5.94
   5  -1   4  128.41    9.35
   5  -1   4  121.68    7.86
  -6   1  -4   78.60    5.09
  -6   1  -4   75.59    7.16
   6  -1   4   78.05    9.06
   6  -1   4   71.62    6.73
  -7   1  -4    1.16    4.52
  -7   1  -4    2.08    2.49
   7  -1   4    1.82    4.39
   7  -1   4    3.29    6.24
  -8   1  -4    0.39    5.26
   8  -1   4    1.29    7.15
   8  -1   4    3.48    6.17
  -9   1  -4    6.61    6.84
   9  -1   4    8.23    9.23
   9  -1   4    0.60    7.60
 -10   1  -4   21.31    9.84
  10  -1   4  -20.47   11.78
 -10   0   4    2.82    7.73
 -10   0   4   16.15   11.52
   9   0  -4   30.69    7.63
  -9   0   4   23.02    7.17
  -9   0   4   34.76    9.31
   8   0  -4   73.39    8.07
   8   0  -4   70.10    5.35
  -8   0   4   86.29   11.34
  -8   0   4   57.64    7.03
   7   0  -4  114.92    6.37
   7   0  -4   97.75    9.62
  -7   0   4  112.59    8.39
   6   0  -4  157.40    7.54
   6   0  -4  145.59    9.82
  -6   0   4  156.74   10.29
  -6   0   4  155.22    8.85
   5   0  -4  324.82   12.10
   5   0  -4  319.20   14.42
  -5   0   4  337.81   15.01
  -5   0   4  306.35   12.78
   4   0  -4  592.81   20.50
   4   0  -4  609.64   19.10
  -4   0   4  605.49   21.51
  -4   0   4  622.84   19.51
   3   0  -4  147.37    6.78
   3   0  -4  154.36    7.32
  -3   0   4  140.77    6.32
  -3   0   4  147.59    7.98
   2   0  -4 2641.60   67.88
   2   0  -4 2670.13   66.48
   2   0  -4 2621.51   67.02
  -2   0   4 2704.00   69.74
  -2   0   4 2554.25   67.14
  -2   0   4 2696.31   66.57
   1   0  -4 2196.37   58.39
   1   0  -4 2247.93   56.76
   1   0  -4 2265.98   56.97
  -1   0   4 2261.46   59.72
  -1   0   4 2356.44   57.08
  -1   0   4 2305.40   56.88
   0   0  -4  792.86   22.04
   0   0  -4  786.72   21.60
   0   0  -4  811.39   22.46
   0   0   4  789.83   23.44
   0   0   4  808.76   20.87
   0   0   4  764.77   22.66
  -1   0  -4  318.57   11.00
  -1   0  -4  330.72   10.49
  -1   0  -4  316.47   11.16
   1   0   4  286.89   10.68
   1   0   4  291.35   11.41
  -2   0  -4  152.36    6.21
  -2   0  -4  147.96    7.46
   2   0   4  151.16    7.64
   2   0   4  153.14    7.90
  -3   0  -4 1165.59   30.35
  -3   0  -4 1076.63   33.41
   3   0   4 1112.57   33.49
   3   0   4 1133.30   34.64
  -4   0  -4  269.66   12.69
  -4   0  -4  278.50    9.49
   4   0   4  286.13   13.90
   4   0   4  282.91   12.66
  -5   0  -4   72.20    7.27
  -5   0  -4   84.70    4.37
   5   0   4   76.94    8.20
   5   0   4   83.34    7.42
  -6   0  -4   31.11    3.39
  -6   0  -4   26.71    5.54
   6   0   4   39.19    6.42
   6   0   4   33.39    7.02
  -7   0  -4   71.16    8.15
   7   0   4   68.56    8.91
   7   0   4   70.45   10.40
  -8   0  -4   49.85    9.34
   8   0   4   34.48   10.79
   8   0   4   37.51    8.19
  -9   0  -4   -8.62    7.00
   9   0   4   -3.95    8.84
  11  -1  -4   15.29   12.05
 -11   1   4   -1.89    9.72
  10  -1  -4    5.62    8.19
 -10   1   4    1.80    9.24
 -10   1   4    2.12    7.38
   9  -1  -4    0.98    6.55
   9  -1  -4   -1.87    4.33
  -9   1   4   13.98    7.10
  -9   1   4   16.85    5.85
   8  -1  -4   14.20    5.89
   8  -1  -4   15.03    3.34
  -8   1   4   16.82    5.18
   7  -1  -4   24.38    4.11
   7  -1  -4   29.54    5.23
  -7   1   4   32.38    5.98
  -7   1   4   23.81    4.51
   6  -1  -4   78.63    6.61
   6  -1  -4   76.34    5.58
  -6   1   4   83.02    7.12
  -6   1   4   76.64    6.15
   5  -1  -4   98.68    6.97
   5  -1  -4   93.34    5.97
  -5   1   4   97.20    6.37
  -5   1   4  100.27    7.03
   4  -1  -4   16.86    2.62
   4  -1  -4   15.79    2.99
  -4   1   4   15.74    3.19
  -4   1   4   14.90    2.74
   3  -1  -4  184.10    8.24
   3  -1  -4  178.66    7.63
  -3   1   4  177.06    7.51
  -3   1   4  184.24    8.61
   2  -1  -4  341.51   11.92
   2  -1  -4  345.47    9.83
  -2   1   4  299.90   11.64
  -2   1   4  295.47   10.39
  -2   1   4  296.75    9.84
   1  -1  -4  659.22   19.99
   1  -1  -4  669.13   16.62
  -1   1   4  650.87   20.37
  -1   1   4  676.16   19.12
  -1   1   4  652.96   16.67
   0  -1  -4  520.44   14.94
   0  -1  -4  510.04   16.21
   0   1   4  536.59   14.84
   0   1   4  551.99   16.48
   0   1   4  544.66   17.69
  -1  -1  -4  123.17    5.60
  -1  -1  -4  122.40    6.58
  -1  -1  -4  120.06    5.92
   1   1   4  124.12    5.94
   1   1   4  120.67    6.71
  -2  -1  -4   61.05    3.64
  -2  -1  -4   68.94    5.35
   2   1   4   59.81    4.96
   2   1   4   58.79    5.01
  -3  -1  -4  262.60    8.81
  -3  -1  -4  260.41   12.17
   3   1   4  268.82   12.50
   3   1   4  258.34   12.10
   3   1   4  245.53    9.20
  -4  -1  -4  171.02    6.27
  -4  -1  -4  150.98    9.85
   4   1   4  170.16   10.29
   4   1   4  152.90    6.48
   4   1   4  174.62   10.30
  -5  -1  -4   16.90    4.51
  -5  -1  -4   16.24    2.32
   5   1   4    7.40    4.11
   5   1   4   16.91    4.93
   5   1   4   16.85    2.87
  -6  -1  -4   16.86    5.86
   6   1   4   15.90    5.13
  -7  -1  -4   13.11    6.03
   7   1   4    8.99    5.72
   7   1   4    7.28    7.16
  -8  -1  -4   13.48    7.36
   8   1   4    7.70    7.77
   8   1   4    3.34    9.49
  -9  -1  -4    0.32    9.31
   9   1   4    9.08   10.41
   9   1   4   18.80   15.13
  11  -2  -4   14.31   10.22
 -11   2   4    3.52    8.18
  10  -2  -4   -1.47    7.76
 -10   2   4    5.90    6.62
 -10   2   4   -6.99    8.09
   9  -2  -4    9.38    4.13
   9  -2  -4   16.64    6.34
  -9   2   4   15.12    4.83
   8  -2  -4   56.72    6.35
   8  -2  -4   60.16    8.39
  -8   2   4   54.28    6.32
  -8   2   4   51.32    8.12
   7  -2  -4   85.13    6.64
   7  -2  -4   73.38    7.07
  -7   2   4   67.05    6.32
  -7   2   4   85.31    7.28
   6  -2  -4  279.27   12.50
   6  -2  -4  275.22   13.66
  -6   2   4  280.22   12.59
  -6   2   4  275.43   12.42
   5  -2  -4    4.94    2.13
   5  -2  -4    5.90    2.61
  -5   2   4    1.42    2.27
  -5   2   4    2.24    2.09
   4  -2  -4  501.36   17.54
   4  -2  -4  491.49   16.57
  -4   2   4  443.30   16.20
  -4   2   4  484.60   16.64
   3  -2  -4  758.23   23.76
   3  -2  -4  748.03   21.37
  -3   2   4  759.73   22.79
  -3   2   4  735.11   22.31
  -3   2   4  722.07   21.61
   2  -2  -4  452.30   12.07
   2  -2  -4  452.67   15.74
  -2   2   4  449.86   15.25
  -2   2   4  445.51   12.33
  -2   2   4  419.77   14.31
   1  -2  -4 1012.57   29.21
  -1   2   4 1011.41   28.64
  -1   2   4 1007.62   29.72
   0  -2  -4   28.56    3.07
   0  -2  -4   33.23    2.57
   0   2   4   32.84    3.46
   0   2   4   31.95    3.24
   0   2   4   29.35    2.51
  -1  -2  -4 1137.45   34.44
  -1  -2  -4 1200.37   31.96
   1   2   4 1166.28   35.25
   1   2   4 1162.85   32.18
  -2  -2  -4  550.35   16.23
  -2  -2  -4  537.36   19.76
   2   2   4  563.54   18.80
   2   2   4  547.56   20.45
  -3  -2  -4  159.44    6.11
   3   2   4  158.74    9.00
   3   2   4  153.72    6.62
   3   2   4  154.99    9.68
  -4  -2  -4  133.07    4.92
  -4  -2  -4  144.20   10.02
   4   2   4  123.35    9.34
   4   2   4  126.72    5.38
   4   2   4  131.02    9.21
  -5  -2  -4   37.67    5.96
   5   2   4   37.63    7.23
   5   2   4   34.53    6.62
  -6  -2  -4   84.51    9.50
   6   2   4   63.77   10.09
   6   2   4   59.10    9.03
  -7  -2  -4   21.78    6.85
   7   2   4   31.29    9.69
   7   2   4   13.23    8.68
  -8  -2  -4    8.15    7.90
   8   2   4   -7.11   10.72
   8   2   4   26.91    9.51
  11  -3  -4    5.73    9.79
 -11   3   4   -3.30   13.49
  10  -3  -4   17.99    5.58
 -10   3   4   18.52    5.95
   9  -3  -4   10.81    4.54
   9  -3  -4   21.35    6.54
   8  -3  -4    9.37    5.36
   8  -3  -4   20.41    4.19
  -8   3   4   15.36    4.25
  -8   3   4   16.47    4.68
   7  -3  -4   17.76    7.92
   7  -3  -4    6.08    3.34
  -7   3   4   14.66    3.49
  -7   3   4   10.37    3.44
   6  -3  -4   17.68    3.52
   6  -3  -4   20.55    4.67
  -6   3   4   12.02    3.39
  -6   3   4   22.36    3.58
   5  -3  -4   39.47    4.64
   5  -3  -4   46.99    5.06
  -5   3   4   50.12    4.64
  -5   3   4   52.43    4.39
   4  -3  -4   81.35    5.54
   4  -3  -4   87.03    6.48
  -4   3   4   84.99    5.59
  -4   3   4   89.64    5.34
   3  -3  -4  287.08   12.54
   3  -3  -4  295.13   10.02
  -3   3   4  288.36   10.20
  -3   3   4  300.75   11.60
  -3   3   4  292.84   11.33
   2  -3  -4  159.67    8.31
   2  -3  -4  166.86    5.29
   2  -3  -4  162.88    4.93
  -2   3   4  161.68    8.04
  -2   3   4  159.46    7.62
   1  -3  -4    1.41    1.05
   1  -3  -4    1.62    1.68
  -1   3   4    2.33    1.61
  -1   3   4    1.58    0.83
  -1   3   4    2.88    1.91
   0  -3  -4  109.53    5.45
   0  -3  -4  112.36    6.08
   0  -3  -4  109.15    7.21
   0   3   4  116.17    7.28
   0   3   4  111.82    4.83
   0   3   4  117.12    6.80
  -1  -3  -4   90.52    5.16
  -1  -3  -4   93.77    6.92
   1   3   4   85.87    6.49
   1   3   4   87.19    5.12
  -2  -3  -4  290.02   13.68
  -2  -3  -4  305.90   10.42
   2   3   4  300.65   12.45
   2   3   4  297.99   14.27
  -3  -3  -4   91.76    8.00
  -3  -3  -4  101.38    4.60
  -3  -3  -4   94.45    4.69
   3   3   4   96.25    7.46
   3   3   4  111.86    8.86
  -4  -3  -4    8.65    4.16
   4   3   4    9.47    4.47
  -5  -3  -4    4.69    5.02
   5   3   4    6.57    5.53
   5   3   4    9.88    6.29
  -6  -3  -4    3.05    5.79
   6   3   4   -9.91    7.28
   6   3   4   11.00    7.41
   7   3   4   42.81   10.12
   7   3   4    9.81    8.85
  11  -4  -4   -0.83    6.18
  11  -4  -4  -12.15    8.38
 -11   4   4   -2.32    8.05
  10  -4  -4   11.11    7.32
  10  -4  -4    6.69    5.55
   9  -4  -4   15.51    5.09
   9  -4  -4    9.81    6.51
  -9   4   4   21.64    4.92
  -9   4   4   13.83    4.54
   8  -4  -4   64.13    8.59
  -8   4   4   63.34    6.45
  -8   4   4   68.90    6.64
   7  -4  -4   25.90    6.17
   7  -4  -4   27.62    6.00
  -7   4   4   30.79    4.79
  -7   4   4   24.37    4.30
   6  -4  -4   27.41    5.75
   6  -4  -4   23.93    4.45
  -6   4   4   27.68    3.76
   5  -4  -4  152.04    9.51
   5  -4  -4  150.77    8.55
  -5   4   4  150.58    8.58
  -5   4   4  144.99    7.20
   4  -4  -4   52.81    5.45
   4  -4  -4   56.77    4.56
  -4   4   4   62.57    4.52
  -4   4   4   56.79    4.85
   3  -4  -4  552.83   20.36
   3  -4  -4  556.74   16.63
   3  -4  -4  546.21   15.58
  -3   4   4  534.31   18.68
  -3   4   4  567.18   18.69
   2  -4  -4  121.14    5.26
   2  -4  -4  124.06    7.76
   2  -4  -4  122.16    4.58
  -2   4   4  118.68    7.18
  -2   4   4  127.26    7.11
   1  -4  -4  413.18   12.44
   1  -4  -4  418.76   15.67
  -1   4   4  412.35   16.39
  -1   4   4  420.96   12.21
  -1   4   4  399.62   15.46
   0  -4  -4  453.60   15.85
   0  -4  -4  441.31   17.85
   0   4   4  451.31   14.19
   0   4   4  437.63   17.75
  -1  -4  -4  150.47    7.42
   1   4   4  162.58    7.75
  -2  -4  -4  315.63   15.12
  -2  -4  -4  314.06   11.08
   2   4   4  309.97   15.54
   2   4   4  296.81   12.85
  -3  -4  -4    4.74    1.81
  -3  -4  -4    2.25    4.01
   3   4   4    4.46    3.96
   3   4   4   -1.83    3.74
  -4  -4  -4   81.44    8.10
   4   4   4   88.52    9.63
   4   4   4   59.81    8.43
  -5  -4  -4   43.43    8.50
   5   4   4   47.38    9.54
   5   4   4   49.96    9.57
   6   4   4   28.03    8.93
   6   4   4   28.13    9.17
  -7  -4  -4   -1.50   10.06
   7   4   4    6.57   11.01
   7   4   4   -0.89    9.80
  12  -5  -4   -8.38   10.98
 -12   5   4   11.97   10.36
  11  -5  -4   18.44    8.94
  11  -5  -4    6.94    6.52
 -11   5   4   13.41    7.35
  10  -5  -4   10.65    6.28
  10  -5  -4    8.77    7.61
 -10   5   4    6.60    5.48
   9  -5  -4    5.78    5.61
   9  -5  -4   -7.41    6.59
  -9   5   4    4.77    4.25
   8  -5  -4    2.87    5.69
   8  -5  -4   -0.81    4.41
  -8   5   4    2.60    3.23
  -8   5   4    4.18    3.74
   7  -5  -4    6.74    4.87
   7  -5  -4    7.37    4.37
  -7   5   4    5.92    2.86
  -7   5   4    7.83    3.47
   6  -5  -4   44.58    5.50
  -6   5   4   43.53    3.85
  -6   5   4   45.63    5.06
   5  -5  -4   78.14    7.32
   5  -5  -4   85.39    6.55
  -5   5   4   89.58    5.78
  -5   5   4   91.04    6.75
   4  -5  -4   94.28    7.30
   4  -5  -4  103.15    6.13
  -4   5   4   86.65    5.79
  -4   5   4   94.70    6.53
   3  -5  -4   12.77    2.46
   3  -5  -4   17.71    3.60
   3  -5  -4   14.40    2.78
  -3   5   4   14.25    3.06
  -3   5   4   17.52    3.47
   2  -5  -4   51.79    3.61
   2  -5  -4   60.43    4.38
   2  -5  -4   54.22    5.76
  -2   5   4   60.85    5.55
  -2   5   4   61.93    5.13
   1  -5  -4   68.56    5.99
  -1   5   4   73.60    5.72
  -1   5   4   71.26    6.78
  -1   5   4   71.52    4.10
   0  -5  -4  132.11    7.36
   0   5   4  129.36    6.57
  -1  -5  -4  114.83    6.67
  -1  -5  -4  117.56    8.78
   1   5   4   99.35    9.11
   1   5   4  114.75    6.87
  -2  -5  -4    7.72    2.38
  -2  -5  -4    0.42    3.95
   2   5   4    5.80    4.69
   2   5   4   14.48    4.59
  -3  -5  -4    5.45    4.68
   3   5   4   16.15    4.70
   3   5   4   20.35    5.59
  -4  -5  -4    9.04    5.17
   4   5   4   -3.25    6.01
   4   5   4   -1.98    5.90
  -5  -5  -4    0.67    5.82
   5   5   4   17.18    8.41
   5   5   4   13.85    9.22
  -6  -5  -4    5.68    7.87
   6   5   4    1.44   10.54
   6   5   4   -1.83   10.73
  12  -6  -4   12.64   11.55
  12  -6  -4    1.65    8.73
 -12   6   4    2.12    8.19
  11  -6  -4    5.76    8.45
  11  -6  -4   17.30    8.99
 -11   6   4    8.92   10.64
  10  -6  -4   -4.49    8.62
  10  -6  -4   12.08    6.14
 -10   6   4   14.60    6.74
   9  -6  -4    5.07    6.11
   9  -6  -4   19.42    7.99
  -9   6   4   19.13    6.09
   8  -6  -4    6.83    5.75
   8  -6  -4   -1.22    4.41
  -8   6   4    1.41    2.91
  -8   6   4   -2.71    4.38
   7  -6  -4   26.48    5.42
   7  -6  -4   34.83    6.54
  -7   6   4   27.50    5.19
  -7   6   4   31.63    4.11
   6  -6  -4   16.08    5.51
  -6   6   4   18.09    4.61
  -6   6   4   10.51    2.95
   5  -6  -4   81.15    8.66
   5  -6  -4   96.73    6.87
  -5   6   4   84.99    6.77
  -5   6   4   88.08    5.76
   4  -6  -4  151.32    8.25
   4  -6  -4  149.92   11.02
  -4   6   4  153.98    8.37
  -4   6   4  147.10    8.89
   3  -6  -4   25.91    4.62
   3  -6  -4   31.13    4.94
  -3   6   4   37.93    4.92
  -3   6   4   31.22    4.81
   2  -6  -4  160.29    9.92
   2  -6  -4  140.29    8.10
  -2   6   4  144.53    9.05
  -2   6   4  153.95    9.72
   1  -6  -4   35.55    5.11
  -1   6   4   31.95    5.87
  -1   6   4   29.87    3.53
  -1   6   4   32.44    4.85
   0  -6  -4  190.02   12.01
   0  -6  -4  193.84    9.92
   0   6   4  209.16    9.15
   0   6   4  185.96   11.88
  -1  -6  -4   40.20    5.93
  -1  -6  -4   26.58    4.59
   1   6   4   30.09    5.02
   1   6   4   33.66    7.44
  -2  -6  -4   33.86    4.51
  -2  -6  -4   36.69    7.04
   2   6   4   48.57    8.13
  -3  -6  -4   55.26    9.31
   3   6   4   51.18    9.83
   3   6   4   60.99    8.35
  -4  -6  -4   10.51    7.28
   4   6   4   13.01    7.54
   4   6   4   17.53    7.33
  -5  -6  -4   -2.26    7.63
   5   6   4   26.15   10.23
   5   6   4   -2.63   10.14
  12  -7  -4    6.94    9.41
  12  -7  -4  -14.95   11.73
 -12   7   4   13.35    9.64
  11  -7  -4   15.04   11.34
  11  -7  -4   17.90    8.17
 -11   7   4   15.88    8.66
  10  -7  -4    1.63    7.01
  10  -7  -4   23.26    9.99
 -10   7   4  -12.68    6.69
   9  -7  -4   10.76    5.78
   9  -7  -4    2.88    7.80
  -9   7   4   -1.00    4.91
   8  -7  -4    2.51    5.54
   8  -7  -4    8.47    6.91
  -8   7   4    8.87    4.05
   7  -7  -4   16.37    5.54
   7  -7  -4   26.15    6.22
  -7   7   4   15.55    4.87
  -7   7   4   20.44    3.30
   6  -7  -4   28.27    5.85
   6  -7  -4   20.21    5.31
  -6   7   4   32.22    5.04
  -6   7   4   25.42    4.13
   5  -7  -4   25.77    5.64
   5  -7  -4   36.15    5.93
  -5   7   4   42.58    4.97
  -5   7   4   26.59    5.01
   4  -7  -4   23.51    5.55
  -4   7   4   17.66    4.51
  -4   7   4   19.56    4.23
   3  -7  -4   98.92    7.37
   3  -7  -4   92.73    8.96
  -3   7   4   91.03    7.65
  -3   7   4  107.31    8.07
   2  -7  -4   86.72    7.29
   2  -7  -4   92.60    8.64
  -2   7   4   73.67    7.54
  -2   7   4   98.71    7.55
   1  -7  -4   44.60    5.99
  -1   7   4   40.05    7.10
  -1   7   4   31.63    4.44
  -1   7   4   33.65    5.16
   0  -7  -4   -4.93    4.11
   0  -7  -4    4.22    3.74
   0   7   4   -2.18    4.99
   0   7   4   -1.05    3.59
  -1  -7  -4   12.79    4.69
  -1  -7  -4   16.45    3.97
   1   7   4   29.16    7.31
   1   7   4   18.05    4.82
  -2  -7  -4   17.12    6.12
   2   7   4   14.29    7.13
   2   7   4   16.95    5.84
  -3  -7  -4   -9.73    5.77
   3   7   4    7.42    8.26
  -4  -7  -4   14.83    8.66
   4   7   4   19.67   10.60
   4   7   4    0.43    8.94
  11  -8  -4    5.45   12.10
  11  -8  -4   -5.16    8.22
 -11   8   4   -4.93    7.32
  10  -8  -4   12.81   10.18
  10  -8  -4    7.73    7.21
 -10   8   4   15.78    8.27
   9  -8  -4   -5.36    8.30
   9  -8  -4   -6.48    5.78
  -9   8   4   -2.46    5.68
   8  -8  -4    5.36    7.48
   8  -8  -4   -1.64    5.52
  -8   8   4   -0.33    4.61
   7  -8  -4   13.92    6.32
  -7   8   4   12.71    4.48
  -7   8   4   19.66    4.01
   6  -8  -4   59.08    8.58
   6  -8  -4   49.18    7.89
  -6   8   4   42.93    6.43
  -6   8   4   55.87    7.59
   5  -8  -4    9.69    5.62
   5  -8  -4    8.29    5.33
  -5   8   4    4.60    4.08
  -5   8   4    7.38    4.03
   4  -8  -4   23.00    5.27
  -4   8   4   23.72    5.19
   3  -8  -4   -4.02    4.68
   3  -8  -4    6.06    4.51
  -3   8   4    6.10    4.94
  -3   8   4    2.73    4.11
   2  -8  -4   49.32    7.40
   2  -8  -4   57.06    7.49
  -2   8   4   52.12    8.94
  -2   8   4   59.65    7.35
   1  -8  -4   49.91    7.20
   1  -8  -4   55.97    7.14
  -1   8   4   54.67    5.97
  -1   8   4   49.52    8.13
   0   8   4   15.41    6.05
   0   8   4   11.14    4.79
  -1  -8  -4   20.56    6.49
   1   8   4   22.24    5.70
   1   8   4   29.94    8.51
  -2  -8  -4   18.90    7.54
   2   8   4   -5.38    6.07
   2   8   4    9.48    9.55
  -3  -8  -4    2.70    8.13
   3   8   4    4.53   10.41
  11  -9  -4    5.94   12.16
  11  -9  -4    4.34    9.11
 -11   9   4    9.39    8.18
  10  -9  -4    7.38   11.28
  10  -9  -4    7.02    8.51
 -10   9   4    3.28   11.06
   9  -9  -4   -8.68    9.71
   9  -9  -4    1.28    6.53
  -9   9   4    0.34    5.59
   8  -9  -4    0.42    7.78
   8  -9  -4   -1.96    6.15
  -8   9   4    4.86    5.89
   7  -9  -4    4.45    6.55
  -7   9   4   12.14    5.31
   6  -9  -4    2.12    5.54
   6  -9  -4   14.79    7.02
  -6   9   4    3.29    4.63
  -6   9   4    8.09    4.79
   5  -9  -4   29.73    6.99
   5  -9  -4   20.54    6.56
  -5   9   4   17.09    4.44
   4  -9  -4   35.30    7.50
   4  -9  -4   37.53    7.26
  -4   9   4   41.69    8.16
  -4   9   4   38.05    6.16
   3  -9  -4    9.42    5.27
  -3   9   4   13.30    6.00
  -3   9   4   12.48    5.37
   2  -9  -4   10.60    5.65
   2  -9  -4   -5.32    6.78
  -2   9   4    2.24    6.16
  -2   9   4    8.84    4.77
   1  -9  -4    8.94    5.62
  -1   9   4    9.06    6.45
  -1   9   4    4.87    4.92
   0  -9  -4    5.35    5.48
   0  -9  -4   18.41    7.67
   0   9   4   16.91    8.25
  -1  -9  -4   17.09    8.22
   1   9   4   -2.86   10.11
  -2  -9  -4   15.67    8.97
   2   9   4   -6.28   11.80
  11 -10  -4    3.16   10.27
  10 -10  -4    6.85   12.76
  10 -10  -4    2.87    7.83
 -10  10   4   -0.57    8.54
   9 -10  -4   -2.85   10.62
   9 -10  -4   -5.43    6.87
  -9  10   4   -3.36    6.62
   8 -10  -4    0.01    7.05
   8 -10  -4   10.66    8.77
  -8  10   4   19.26    6.83
   7 -10  -4   -1.77    8.38
   7 -10  -4    3.01    6.60
  -7  10   4   14.14    5.86
   6 -10  -4   12.88    7.39
   6 -10  -4    0.57    6.35
  -6  10   4    4.81    6.89
  -6  10   4   18.27    5.67
   5 -10  -4   10.81    7.64
   5 -10  -4   15.68    6.59
  -5  10   4   10.42    6.26
  -4  10   4   23.17    6.95
  -4  10   4   18.24    6.63
   3 -10  -4   22.23    6.56
  -3  10   4   27.65    8.11
  -3  10   4   30.58    6.64
   2 -10  -4    5.56    6.86
   2 -10  -4   16.23    6.07
  -2  10   4    5.51    6.88
   1 -10  -4   10.23    7.15
   1 -10  -4   12.54    6.94
  -1  10   4   15.92   10.22
   0 -10  -4   -0.20    7.32
   0  10   4    4.17   11.77
   1  10   4   -0.58   11.11
  10 -11  -4  -12.32    9.72
 -10  11   4   12.65    9.25
   9 -11  -4   -9.21    8.19
  -9  11   4    3.03    8.57
   8 -11  -4   -7.52    7.66
  -8  11   4   12.45   13.90
   7 -11  -4   -1.90    7.87
  -7  11   4   -4.39    7.92
   6 -11  -4   13.34    6.98
  -6  11   4   15.10    7.25
   5 -11  -4   10.58    7.22
  -5  11   4   16.49    8.74
  -5  11   4    9.65    6.26
   4 -11  -4    1.19    6.71
  -4  11   4   11.18    6.32
  -4  11   4   19.34    8.13
   3 -11  -4    0.55    8.25
  -3  11   4    5.09    9.16
  -3  11   4   18.24    8.36
   2 -11  -4   -5.81    7.03
   2 -11  -4   10.89    7.61
  -2  11   4    0.35   11.20
   1 -11  -4    1.87    9.36
  -1  11   4  -15.99    9.96
   8 -12  -4   26.60   10.66
  -8  12   4   -3.10    9.72
   7 -12  -4    7.12    9.20
  -7  12   4   -9.70    7.64
   6 -12  -4   11.58    8.35
  -6  12   4    0.03    7.70
  -5  12   4   23.34    9.33
  -5  12   4   22.42    8.64
   4 -12  -4  -12.92    9.26
  -4  12   4   -5.23    9.70
  -4  12   4   -5.30   10.30
  -2  13  -5    8.55    7.40
   2 -13   5   16.33   11.48
   2 -13   5   21.07   15.27
  -3  13  -5   -3.34    7.07
   3 -13   5    7.40   10.86
   3 -13   5   11.19   13.47
  -4  13  -5   21.23    7.36
  -4  13  -5   12.70   12.67
   4 -13   5   20.82   14.02
  -5  13  -5    2.81    6.45
  -5  13  -5    2.06    7.63
   5 -13   5   10.76   13.15
  -6  13  -5    6.80    6.49
  -6  13  -5    3.53    7.26
   6 -13   5   25.25   15.51
  -7  13  -5   12.66    8.47
  -7  13  -5   -2.35    6.55
   7 -13   5    3.63   15.24
  -8  13  -5   27.06    8.92
   0  12  -5    9.71   14.14
   0 -12   5  -11.55   18.36
  -1  12  -5   12.32    6.90
  -1  12  -5    3.88   10.41
   1 -12   5   12.42   10.28
   1 -12   5    5.07    7.67
  -2  12  -5   22.26    6.16
  -2  12  -5   55.09   12.22
   2 -12   5   36.96   10.21
   2 -12   5   31.21    7.87
  -3  12  -5   14.50    6.07
   3 -12   5   30.14    8.73
   3 -12   5   22.20   10.93
  -4  12  -5    4.89    5.88
  -4  12  -5   -0.09    6.04
   4 -12   5    0.46    7.42
   4 -12   5    6.08   11.77
  -5  12  -5    7.20    5.47
  -5  12  -5    5.24    6.39
   5 -12   5    2.02   10.68
  -6  12  -5   13.57    6.56
  -6  12  -5   10.27    6.68
   6 -12   5   -0.04    9.72
  -7  12  -5    9.00    7.04
   7 -12   5   -1.17   11.21
  -8  12  -5    4.02    7.56
  -8  12  -5    9.16    6.16
  -9  12  -5   -2.34    7.04
  -9  12  -5    9.23    9.16
   9 -12   5    4.04   13.16
   2  11  -5   -6.38   11.28
  -2 -11   5    9.22   11.73
   1  11  -5   -5.60    8.49
  -1 -11   5   12.86    7.19
  -1 -11   5   -4.96   10.15
   0  11  -5   10.58    8.52
   0 -11   5   32.67   11.77
   0 -11   5    0.87    6.59
  -1  11  -5    5.12    7.13
  -1  11  -5    9.86    5.18
   1 -11   5    1.74    8.49
   1 -11   5    5.06    6.22
  -2  11  -5   17.99    7.63
  -2  11  -5   12.33    4.89
   2 -11   5   11.79    6.09
   2 -11   5   11.95    7.52
  -3  11  -5   10.07    5.05
  -3  11  -5   23.11    5.07
   3 -11   5   16.50    9.35
   3 -11   5   21.92    7.33
  -4  11  -5   23.24    5.66
  -4  11  -5   15.68    5.43
   4 -11   5   27.32    7.29
   4 -11   5   30.83   10.78
  -5  11  -5   19.85    6.08
  -5  11  -5   19.72    5.57
   5 -11   5   33.44   10.01
   5 -11   5   15.86    8.86
  -6  11  -5    6.23    5.41
  -6  11  -5    5.10    5.62
   6 -11   5    7.51    9.31
  -7  11  -5   14.79    5.52
  -7  11  -5   -4.28    6.02
   7 -11   5   -6.24   10.11
  -8  11  -5   19.06    6.04
  -8  11  -5   34.68    9.16
   8 -11   5   27.46   11.45
  -9  11  -5    4.85    6.99
  -9  11  -5    3.34    7.81
   9 -11   5   15.11   12.80
 -10  11  -5   20.86   17.06
 -10  11  -5   -1.72    7.40
  10 -11   5  -11.88   10.89
   3  10  -5    9.96    9.62
  -3 -10   5    3.91   11.58
   2  10  -5    1.70    9.65
  -2 -10   5   -2.52    6.12
  -2 -10   5  -10.99    9.74
   1  10  -5   15.43    4.69
   1  10  -5   14.09    8.49
  -1 -10   5    8.57    6.05
  -1 -10   5   -1.06    8.73
   0  10  -5   64.38    9.89
   0  10  -5   48.36    6.78
   0 -10   5   53.33   10.26
   0 -10   5   45.00    7.77
  -1  10  -5   19.19    6.15
   1 -10   5    5.34    6.79
   1 -10   5   10.93    5.89
  -2  10  -5   -0.08    4.08
  -2  10  -5    6.10    3.86
   2 -10   5    8.07    6.51
  -3  10  -5    4.67    3.50
  -3  10  -5    5.14    4.50
   3 -10   5   10.53    5.66
   3 -10   5   -2.33    8.27
  -4  10  -5   23.07    5.09
  -4  10  -5   26.63    4.90
   4 -10   5   26.67    8.45
   4 -10   5   28.31    5.89
  -5  10  -5   14.55    4.64
  -5  10  -5   14.46    5.11
   5 -10   5   24.16    7.96
  -6  10  -5    5.38    4.12
  -6  10  -5   10.27    4.59
   6 -10   5    3.11    7.41
  -7  10  -5    8.53    5.15
  -7  10  -5    8.04    4.98
   7 -10   5   -4.40    8.32
  -8  10  -5   15.86    5.66
   8 -10   5   15.41   10.05
  -9  10  -5   -0.42    5.41
  -9  10  -5    1.57    7.32
   9 -10   5   -8.60    8.67
 -10  10  -5   -3.00    6.75
  10 -10   5    9.67   11.37
   4   9  -5    3.85    9.41
  -4  -9   5  -10.94   12.38
  -4  -9   5   -5.62    6.71
   3   9  -5   19.03    7.82
  -3  -9   5   -3.53    8.60
   2   9  -5    4.65    6.57
  -2  -9   5   -1.50    6.96
  -2  -9   5   19.67    5.77
   1   9  -5    3.07    5.79
   1   9  -5    2.00    4.85
  -1  -9   5    3.60    4.45
  -1  -9   5   10.91    7.75
   0   9  -5   67.15    6.30
   0   9  -5   66.67    8.98
   0  -9   5   73.65    7.01
   0  -9   5   51.36   10.26
  -1   9  -5   57.03    7.29
  -1   9  -5   60.46    5.93
   1  -9   5   61.72    6.30
   1  -9   5   48.40    8.13
  -2   9  -5   65.46    5.56
  -2   9  -5   57.21    6.67
  -2   9  -5   75.56    8.03
   2  -9   5   66.15    8.58
  -3   9  -5   66.47    6.43
  -3   9  -5   78.62    6.05
   3  -9   5   62.26    9.25
   3  -9   5   47.87    7.00
  -4   9  -5    2.90    3.23
  -4   9  -5    3.62    3.25
   4  -9   5    9.90    6.05
   4  -9   5    4.63    4.27
  -5   9  -5    1.09    3.34
   5  -9   5    7.61    3.72
   5  -9   5    5.55    6.60
  -6   9  -5   40.76    6.68
  -6   9  -5   42.64    6.12
   6  -9   5   33.04    8.69
  -7   9  -5   17.99    5.40
  -7   9  -5   19.05    5.35
   7  -9   5   19.65    8.64
  -8   9  -5    8.42    4.55
  -8   9  -5    1.99    5.93
   8  -9   5  -13.68    8.41
  -9   9  -5    5.77    6.35
  -9   9  -5   18.48    6.73
   9  -9   5    2.57    8.54
 -10   9  -5  -11.09    7.16
 -10   9  -5   -2.27    7.02
  10  -9   5   -5.93   10.55
   5   8  -5   10.92   11.85
  -5  -8   5   14.52    7.65
  -5  -8   5   -7.91   12.09
   4   8  -5   22.09    9.29
  -4  -8   5   13.11   10.18
  -4  -8   5    2.30    5.73
   3   8  -5   51.55   10.10
  -3  -8   5   34.35    6.48
  -3  -8   5   34.80    8.55
   2   8  -5   32.28    4.52
   2   8  -5   40.75    7.27
  -2  -8   5   43.21    9.25
   1   8  -5   18.57    5.87
   1   8  -5   20.34    3.93
  -1  -8   5   22.45    7.39
  -1  -8   5   32.92    5.31
   0   8  -5    9.05    2.78
   0   8  -5   12.20    4.47
   0  -8   5   18.71    5.31
   0  -8   5    6.66    3.55
  -1   8  -5   12.75    3.06
  -1   8  -5   13.29    3.02
  -1   8  -5   14.11    4.34
   1  -8   5   14.16    6.08
  -2   8  -5  117.53    7.80
  -2   8  -5  132.51    6.99
  -2   8  -5  119.80    8.62
   2  -8   5  122.81    9.45
  -3   8  -5   85.15    6.57
  -3   8  -5   78.94    5.85
   3  -8   5   81.22    7.05
   3  -8   5   87.37   10.29
  -4   8  -5   47.13    4.58
  -4   8  -5   40.18    5.14
   4  -8   5   44.38    8.92
   4  -8   5   47.67    5.50
  -5   8  -5   11.88    3.60
  -5   8  -5   14.46    4.10
   5  -8   5   22.20    3.98
   5  -8   5   21.44    7.66
  -6   8  -5    8.15    3.54
  -6   8  -5    4.98    3.72
   6  -8   5   10.93    7.16
  -7   8  -5   13.71    4.84
  -7   8  -5   17.10    4.40
   7  -8   5   16.53    7.76
  -8   8  -5    7.23    5.62
  -8   8  -5    7.26    4.24
   8  -8   5   14.74    7.88
  -9   8  -5    5.84    4.92
  -9   8  -5    9.22    6.49
   9  -8   5   18.64    8.65
 -10   8  -5   11.53    6.82
 -10   8  -5   -1.70    5.77
  10  -8   5   15.90   11.98
 -11   8  -5   -7.28    7.75
 -11   8  -5   14.38    9.34
  11  -8   5   -9.61   11.29
   6   7  -5   15.10    9.74
  -6  -7   5   -0.05   13.03
   5   7  -5   12.60    9.13
  -5  -7   5   12.80    9.90
  -5  -7   5    5.47    6.40
   4   7  -5    1.07    6.05
  -4  -7   5   -1.52    7.07
  -4  -7   5    0.16    4.62
   3   7  -5    0.37    5.35
   3   7  -5   -4.50    2.70
  -3  -7   5    2.04    6.05
   2   7  -5  189.64   11.81
   2   7  -5  202.14    9.35
  -2  -7   5  206.20   10.24
  -2  -7   5  200.33   14.34
   1   7  -5  123.96    8.82
   1   7  -5  128.56    7.18
  -1  -7   5  104.56   10.14
  -1  -7   5  114.27    7.21
   0   7  -5   96.81    6.62
   0   7  -5   78.86    7.43
   0  -7   5   96.83    6.02
  -1   7  -5  119.84    7.31
  -1   7  -5  110.94    5.94
  -1   7  -5  106.32    7.91
   1  -7   5  112.38    9.36
  -2   7  -5   21.09    3.44
  -2   7  -5   16.17    2.70
   2  -7   5   18.38    4.36
  -3   7  -5   40.12    5.01
  -3   7  -5   39.06    3.99
   3  -7   5   37.77    4.74
   3  -7   5   35.92    8.93
  -4   7  -5   79.92    5.53
  -4   7  -5   74.84    6.60
   4  -7   5   66.26    8.09
   4  -7   5   78.90    5.39
  -5   7  -5   94.36    7.09
  -5   7  -5  103.04    6.94
   5  -7   5   87.06    9.14
   5  -7   5   84.98    4.66
   5  -7   5   88.64    4.68
  -6   7  -5   21.00    4.28
  -6   7  -5   23.16    4.80
   6  -7   5   29.88    7.32
  -7   7  -5    6.72    4.24
   7  -7   5    3.58    6.10
  -8   7  -5    7.26    4.99
  -8   7  -5    1.00    4.09
   8  -7   5   -8.00    6.44
  -9   7  -5   10.70    5.50
  -9   7  -5   23.20    6.79
   9  -7   5   14.44    8.63
 -10   7  -5    6.61    7.75
 -10   7  -5   -3.75    6.14
 -11   7  -5   -0.87    8.87
 -11   7  -5   -1.90    7.51
  11  -7   5   12.85   15.14
   7   6  -5   28.59   12.04
  -7  -6   5   22.52   14.57
   6   6  -5    1.05    7.53
  -6  -6   5    4.09    7.15
  -6  -6   5   15.14   11.70
  -5  -6   5   35.61    6.85
  -5  -6   5   34.24    9.75
   4   6  -5   67.78    8.83
   4   6  -5   66.15    5.11
  -4  -6   5   52.54   10.89
  -4  -6   5   58.98    6.57
   3   6  -5   45.66    6.76
   3   6  -5   38.46    4.12
  -3  -6   5   47.12    8.30
  -3  -6   5   34.33    5.07
   2   6  -5   37.15    3.89
   2   6  -5   29.51    5.22
  -2  -6   5   43.74    7.12
  -2  -6   5   35.73    4.19
   1   6  -5   56.23    5.98
   1   6  -5   74.81    5.03
  -1  -6   5   71.59    4.82
   0   6  -5  348.47   13.39
   0   6  -5  341.77   14.85
   0  -6   5  336.44   16.62
   0  -6   5  335.13   11.70
  -1   6  -5  380.74   14.54
  -1   6  -5  360.54   15.10
  -1   6  -5  375.79   12.09
   1  -6   5  354.27   16.01
  -2   6  -5   42.50    4.62
  -2   6  -5   48.94    3.37
  -2   6  -5   44.22    4.46
   2  -6   5   45.80    6.23
   2  -6   5   43.79    5.08
  -3   6  -5  155.39    8.63
  -3   6  -5  156.04    7.16
   3  -6   5  171.79   11.72
   3  -6   5  145.67    7.88
  -4   6  -5   23.61    3.60
  -4   6  -5   20.85    3.36
   4  -6   5   18.77    3.26
  -5   6  -5   78.12    4.81
  -5   6  -5   92.59    6.47
  -5   6  -5   76.69    6.37
   5  -6   5   82.87    4.23
   5  -6   5   77.10    8.23
  -6   6  -5   48.50    5.40
  -6   6  -5   42.33    3.13
  -6   6  -5   40.95    4.56
   6  -6   5   55.48    7.60
  -7   6  -5   15.88    3.63
  -7   6  -5   18.96    4.61
   7  -6   5   18.02    7.48
  -8   6  -5   21.67    4.60
  -8   6  -5   25.90    6.49
   8  -6   5   12.62    7.54
  -9   6  -5   10.01    4.69
  -9   6  -5    0.75    5.93
   9  -6   5   -4.01    8.99
 -10   6  -5    7.54    6.01
 -10   6  -5   -3.00    6.61
 -11   6  -5   13.59   10.59
  -8  -5   5    8.29    9.16
  -8  -5   5   27.45   20.01
   7   5  -5    1.51    8.04
  -7  -5   5    5.33   12.98
  -6  -5   5    4.06    5.83
  -6  -5   5    7.12    9.91
   5   5  -5   -0.09    6.14
  -5  -5   5    4.49    4.56
  -5  -5   5    0.84    6.80
   4   5  -5  181.78    7.21
   4   5  -5  150.89   11.81
  -4  -5   5  176.31    9.74
  -4  -5   5  182.39   14.04
   3   5  -5   60.43    4.17
   3   5  -5   67.74    6.45
  -3  -5   5   55.46    5.08
  -3  -5   5   48.04    8.74
   2   5  -5   68.92    4.68
  -2  -5   5   80.95    5.08
   1   5  -5   77.99    6.10
   1   5  -5   90.89    5.28
  -1  -5   5   88.46    7.77
  -1  -5   5   82.53    4.59
   0   5  -5   51.63    4.27
   0   5  -5   47.61    4.68
   0  -5   5   50.92    3.10
   0  -5   5   46.27    5.94
   0  -5   5   48.34    2.97
  -1   5  -5  206.23    9.47
  -1   5  -5  203.38    9.86
  -1   5  -5  211.02    7.22
   1  -5   5  224.10   10.95
   1  -5   5  211.28    7.17
  -2   5  -5   92.42    4.49
  -2   5  -5   88.57    5.88
   2  -5   5  112.12    8.49
   2  -5   5   88.68    6.10
  -3   5  -5  194.69    9.62
  -3   5  -5  195.00    8.14
   3  -5   5  185.45    8.38
   3  -5   5  184.24   11.42
  -4   5  -5   93.14    6.48
  -4   5  -5   84.73    5.08
  -4   5  -5   92.85    5.79
   4  -5   5   93.83    8.36
   4  -5   5   88.08    4.90
  -5   5  -5    6.32    2.96
  -5   5  -5    5.37    2.71
  -5   5  -5    5.55    2.24
   5  -5   5    6.12    1.80
   5  -5   5    6.03    4.36
  -6   5  -5   13.07    3.45
  -6   5  -5   12.56    3.36
  -6   5  -5    6.76    3.15
   6  -5   5   13.94    2.40
   6  -5   5   12.25    5.06
  -7   5  -5   36.73    5.12
  -7   5  -5   31.38    6.22
   7  -5   5   30.06    7.53
   7  -5   5   35.92    3.87
  -8   5  -5    8.95    5.11
  -8   5  -5   13.81    4.48
   8  -5   5   27.20    9.08
  -9   5  -5   13.72    6.66
  -9   5  -5    6.11    4.77
   9  -5   5   -7.80    7.83
 -10   5  -5   -8.25    5.61
 -10   5  -5   -8.51    7.87
  10  -5   5    2.66   11.64
   8   4  -5   20.47   11.45
  -8  -4   5   26.15   14.86
  -8  -4   5   17.15    7.82
  -7  -4   5   48.65    8.39
  -7  -4   5   40.25   10.87
   6   4  -5   45.36    7.52
  -6  -4   5   39.34    7.07
   5   4  -5   66.19    7.57
   5   4  -5   54.84    3.78
  -5  -4   5   69.59    9.44
   4   4  -5   20.27    2.87
   4   4  -5   16.38    4.38
  -4  -4   5   25.71    4.04
  -4  -4   5   25.09    6.39
   3   4  -5   92.67    4.98
  -3  -4   5   96.08    5.83
   2   4  -5  390.58   16.00
   2   4  -5  414.88   13.80
  -2  -4   5  393.07   18.29
  -2  -4   5  422.64   13.30
   1   4  -5 1327.57   36.95
   1   4  -5 1267.40   38.62
  -1  -4   5 1377.61   34.80
  -1  -4   5 1346.32   41.97
  -1  -4   5 1380.61   34.60
   0   4  -5   17.16    3.05
   0   4  -5   18.05    2.52
   0  -4   5   16.26    1.51
   0  -4   5   19.36    1.39
   0  -4   5   17.77    3.31
  -1   4  -5  420.14   14.68
  -1   4  -5  407.27   15.02
  -1   4  -5  407.32   11.77
   1  -4   5  426.70   15.93
   1  -4   5  418.87   11.77
  -2   4  -5   94.95    4.43
  -2   4  -5   91.50    5.71
   2  -4   5   90.71    4.47
   2  -4   5   96.70    7.33
   2  -4   5   88.25    5.62
  -3   4  -5  546.54   18.68
  -3   4  -5  563.16   17.53
   3  -4   5  543.19   21.84
   3  -4   5  558.21   17.49
  -4   4  -5  350.44   13.88
  -4   4  -5  352.57   13.67
   4  -4   5  376.09   12.54
   4  -4   5  371.79   17.16
  -5   4  -5   19.20    4.10
  -5   4  -5   17.38    3.65
   5  -4   5   22.12    3.11
  -6   4  -5  109.29    7.56
  -6   4  -5   99.13    6.80
   6  -4   5  109.11    9.84
   6  -4   5  112.88    6.29
  -7   4  -5   16.02    5.18
  -7   4  -5   15.77    4.64
   7  -4   5   13.95    3.60
   7  -4   5   21.64    6.29
  -8   4  -5   31.40    6.46
  -8   4  -5   32.67    5.94
   8  -4   5   38.23    5.97
   8  -4   5   22.86    9.00
  -9   4  -5   10.67    4.67
  -9   4  -5    3.55    6.04
   9  -4   5   20.92   10.04
 -10   4  -5   -8.00    7.95
  10  -4   5   10.27   12.17
   9   3  -5  -13.40   10.14
  -9  -3   5   -4.38    8.56
  -9  -3   5   29.98   13.88
   8   3  -5   -5.19    6.87
  -8  -3   5    3.40    5.73
  -7  -3   5    4.40    7.23
  -7  -3   5   -7.01    5.05
   6   3  -5   44.59    3.22
   6   3  -5   32.65    7.49
  -6  -3   5   46.10    6.21
  -6  -3   5   53.91    8.66
   5   3  -5   41.60    5.79
   5   3  -5   44.81    3.55
  -5  -3   5   60.25    8.25
  -5  -3   5   39.98    5.18
   4   3  -5   31.30    2.86
  -4  -3   5   19.89    3.56
   3   3  -5   29.68    3.04
   3   3  -5   24.08    4.33
  -3  -3   5   41.14    5.25
  -3  -3   5   31.55    3.31
   2   3  -5   91.11    4.22
   2   3  -5   89.93    4.99
   2   3  -5   84.36    5.89
  -2  -3   5   83.74    4.19
  -2  -3   5   87.09    7.17
   1   3  -5  780.49   24.28
   1   3  -5  782.09   22.97
  -1  -3   5  783.72   20.07
  -1  -3   5  795.00   20.03
  -1  -3   5  766.70   26.20
   0   3  -5  300.15   11.00
   0   3  -5  288.85   11.30
   0  -3   5  302.88   12.77
  -1   3  -5  363.38   12.74
   1  -3   5  349.14   14.69
   1  -3   5  341.27   13.25
   1  -3   5  357.77   10.21
  -2   3  -5  156.13    6.50
  -2   3  -5  163.94    7.64
   2  -3   5  156.72    7.43
   2  -3   5  169.49    9.52
  -3   3  -5   11.49    2.52
  -3   3  -5   11.33    2.35
   3  -3   5   16.40    2.50
   3  -3   5   16.03    4.13
  -4   3  -5   83.64    5.43
  -4   3  -5   82.87    5.83
   4  -3   5   87.85    7.65
   4  -3   5   91.43    5.27
  -5   3  -5   60.37    4.78
  -5   3  -5   60.95    5.68
   5  -3   5   59.75    4.62
  -6   3  -5   45.95    4.67
  -6   3  -5   48.90    5.54
   6  -3   5   45.27    5.19
   6  -3   5   39.19    6.97
  -7   3  -5   48.91    7.63
  -7   3  -5   44.77    5.61
   7  -3   5   42.94    8.92
   7  -3   5   37.65    6.10
  -8   3  -5    3.66    5.28
  -8   3  -5    6.34    3.86
   8  -3   5    2.25    5.17
   8  -3   5    0.33    6.92
  -9   3  -5   11.91    6.85
   9  -3   5   13.97    6.50
   9  -3   5   18.93    9.00
 -10   3  -5    2.01    7.75
  10  -3   5  -13.15   11.87
  10   2  -5   20.38   10.08
 -10  -2   5   32.43   17.52
 -10  -2   5   15.04   10.16
   9   2  -5   28.78    9.41
  -9  -2   5   19.04    8.11
  -9  -2   5   21.82   13.20
   8   2  -5   74.29   10.47
  -8  -2   5   70.24    8.97
   7   2  -5   39.83    7.13
  -7  -2   5   42.00    7.35
  -7  -2   5   45.63    9.53
   6   2  -5  118.41    9.48
   6   2  -5  114.89    5.79
  -6  -2   5  132.84   10.80
  -6  -2   5  125.22    9.56
   5   2  -5   64.38    6.25
   5   2  -5   58.27    4.05
  -5  -2   5   59.87    5.51
   4   2  -5  217.25   11.09
   4   2  -5  210.48    8.38
  -4  -2   5  214.70    9.27
  -4  -2   5  203.40   12.11
   3   2  -5 1459.97   41.10
   3   2  -5 1385.97   37.96
  -3  -2   5 1400.56   43.41
  -3  -2   5 1375.32   37.61
   2   2  -5  497.64   16.71
   2   2  -5  501.74   15.66
   2   2  -5  489.16   14.05
  -2  -2   5  469.20   18.50
  -2  -2   5  487.33   13.95
   1   2  -5  403.42   10.43
   1   2  -5  398.75   13.54
   1   2  -5  409.19   13.38
  -1  -2   5  404.04   15.73
  -1  -2   5  382.13   10.31
   0   2  -5  406.56   13.46
   0   2  -5  423.53   13.74
   0   2  -5  407.56   10.72
   0   2  -5  401.64   10.63
   0  -2   5  409.92   15.06
  -1   2  -5 1080.81   29.27
  -1   2  -5 1032.45   27.31
   1  -2   5 1022.71   29.93
   1  -2   5  959.89   30.72
   1  -2   5 1048.95   27.38
  -2   2  -5 1276.71   34.44
  -2   2  -5 1276.63   35.02
   2  -2   5 1263.60   35.52
   2  -2   5 1232.97   37.46
  -3   2  -5   82.53    5.53
  -3   2  -5   85.67    5.13
   3  -2   5   95.40    7.20
   3  -2   5   87.65    5.45
  -4   2  -5  245.98   11.26
  -4   2  -5  243.23    9.82
   4  -2   5  246.75   10.47
   4  -2   5  243.62   12.86
  -5   2  -5  109.77    6.17
   5  -2   5  106.32    6.98
  -6   2  -5  143.23    9.50
  -6   2  -5  120.95    7.02
   6  -2   5  150.63    8.85
   6  -2   5  129.91   10.66
  -7   2  -5   59.91    5.26
  -7   2  -5   54.21    7.25
   7  -2   5   54.18    6.96
   7  -2   5   75.07    9.34
  -8   2  -5   19.27    6.40
   8  -2   5   12.41    7.81
   8  -2   5    9.91    5.35
  -9   2  -5   12.27    7.33
 -10   2  -5   15.17    8.80
  10  -2   5   16.00   12.93
  10   1  -5    7.22    8.39
 -10  -1   5  -13.54    8.65
 -10  -1   5    5.14   14.21
   9   1  -5   -0.61    6.56
  -9  -1   5   -0.58    6.71
  -9  -1   5   -5.44   10.17
   8   1  -5    9.34    5.93
  -8  -1   5    4.88    5.05
  -8  -1   5   -6.50    7.53
   7   1  -5   49.26    4.42
   7   1  -5   52.79    6.74
  -7  -1   5   49.06    6.45
  -7  -1   5   64.56    9.50
   6   1  -5   23.97    5.15
   6   1  -5   19.77    3.48
  -6  -1   5   23.93    4.69
   5   1  -5   41.50    3.76
   5   1  -5   34.85    4.95
  -5  -1   5   36.88    5.96
  -5  -1   5   30.75    4.04
   4   1  -5   14.44    2.58
   4   1  -5   12.82    3.34
  -4  -1   5   14.73    3.88
  -4  -1   5   11.25    2.47
   3   1  -5  743.12   23.16
   3   1  -5  734.50   21.94
  -3  -1   5  730.62   21.11
  -3  -1   5  715.99   25.06
   2   1  -5  269.25    8.69
   2   1  -5  284.52   10.37
   2   1  -5  276.49   10.29
  -2  -1   5  266.03    8.61
  -2  -1   5  280.46   12.27
   1   1  -5  407.41   11.35
   1   1  -5  410.87   13.50
   1   1  -5  410.61   12.93
  -1  -1   5  414.56   15.29
   0   1  -5  537.82   15.49
   0   1  -5  535.44   16.40
   0   1  -5  532.58   14.83
   0   1  -5  532.45   14.57
   0  -1   5  513.19   17.54
   0  -1   5  498.89   16.78
   0  -1   5  501.34   15.32
  -1   1  -5   81.35    4.64
  -1   1  -5   84.48    4.48
   1  -1   5   94.20    5.57
   1  -1   5   86.86    5.56
  -2   1  -5  305.08   10.83
  -2   1  -5  287.62   11.16
   2  -1   5  298.14   12.61
   2  -1   5  303.63   12.02
  -3   1  -5  317.90   11.21
  -3   1  -5  304.54   12.53
   3  -1   5  297.74   12.30
   3  -1   5  298.63   13.45
  -4   1  -5  102.11    7.32
  -4   1  -5   99.50    5.70
   4  -1   5  109.40    7.01
   4  -1   5  116.45    9.01
  -5   1  -5   51.24    4.20
  -5   1  -5   52.94    5.47
   5  -1   5   54.45    5.76
   5  -1   5   44.33    8.05
  -6   1  -5   31.69    6.32
  -6   1  -5   29.23    3.69
   6  -1   5   27.56    6.70
  -7   1  -5   15.94    6.81
  -7   1  -5   19.69    3.48
   7  -1   5   18.39    7.88
  -8   1  -5    2.60    7.06
   8  -1   5    5.19    6.16
   8  -1   5   11.11    8.77
  -9   1  -5    1.45    7.57
   9  -1   5   13.44   11.78
   9  -1   5    4.94    7.84
  10   0  -5   17.82   14.81
 -10   0   5    8.72   10.92
 -10   0   5   20.93    9.13
   9   0  -5   25.79    8.30
  -9   0   5   24.19   10.54
  -9   0   5   36.84    8.03
   8   0  -5   62.98    5.36
   8   0  -5   53.31    7.34
  -8   0   5   56.70    7.88
  -8   0   5   57.26   10.76
   7   0  -5  173.96    8.74
   7   0  -5  175.45   11.54
  -7   0   5  186.92   10.60
  -7   0   5  156.98   17.46
   6   0  -5   73.08    6.63
   6   0  -5   77.83    5.39
  -6   0   5   71.83    6.17
  -6   0   5   74.39    7.40
   5   0  -5  503.04   17.04
   5   0  -5  489.93   18.97
  -5   0   5  500.16   17.54
  -5   0   5  481.45   19.83
   4   0  -5  502.88   17.78
   4   0  -5  477.15   16.44
  -4   0   5  482.33   16.12
  -4   0   5  475.35   18.85
   3   0  -5  164.35    7.71
   3   0  -5  162.83    7.62
  -3   0   5  175.37    7.03
  -3   0   5  172.36    9.25
   2   0  -5  315.69   11.54
   2   0  -5  309.14   10.29
   2   0  -5  296.99    9.82
  -2   0   5  301.63    9.87
  -2   0   5  316.73   12.77
  -2   0   5  295.20   10.17
   1   0  -5  295.38    9.80
   1   0  -5  299.66   11.19
   1   0  -5  307.07    9.56
  -1   0   5  330.28    9.69
  -1   0   5  323.39   10.04
  -1   0   5  314.14   12.28
   0   0  -5 1249.20   33.43
   0   0  -5 1226.36   32.84
   0   0   5 1187.52   34.62
   0   0   5 1194.38   31.30
   0   0   5 1192.61   32.54
  -1   0  -5  811.61   23.37
  -1   0  -5  795.83   23.92
  -1   0  -5  798.58   24.21
   1   0   5  827.57   25.27
   1   0   5  803.89   23.80
  -2   0  -5  181.49    7.52
  -2   0  -5  171.42    8.56
   2   0   5  195.01    9.37
   2   0   5  187.39    9.10
  -3   0  -5  463.55   17.16
  -3   0  -5  468.85   14.54
   3   0   5  430.94   17.40
   3   0   5  425.26   17.08
  -4   0  -5  219.09    8.52
   4   0   5  217.06   11.38
   4   0   5  217.40   12.03
  -5   0  -5  318.82   15.71
  -5   0  -5  341.33   11.28
   5   0   5  310.14   16.18
  -6   0  -5   21.07    5.99
  -6   0  -5   19.45    3.38
   6   0   5   11.65    4.90
   6   0   5   19.50    6.17
  -7   0  -5   40.26    7.06
   7   0   5   25.04    9.39
   7   0   5   47.66    9.47
  -8   0  -5   13.94    7.91
   8   0   5   24.32   10.34
   8   0   5   10.65    7.32
   9   0   5   21.58    8.76
   9   0   5   28.00   11.73
  11  -1  -5   -3.35    9.10
 -11   1   5    2.79    9.45
 -10   1   5   18.40    9.36
 -10   1   5   15.05    7.47
   9  -1  -5   14.76    3.86
   9  -1  -5    5.91    5.53
  -9   1   5   10.73    6.44
   8  -1  -5   38.55    8.02
   8  -1  -5   36.99    5.61
  -8   1   5   26.30    7.27
  -8   1   5   31.37    5.85
   7  -1  -5   21.44    4.14
   7  -1  -5   11.88    4.61
  -7   1   5   10.54    4.53
   6  -1  -5    0.70    3.06
   6  -1  -5    0.35    2.42
  -6   1   5    4.79    3.03
  -6   1   5    3.08    3.38
   5  -1  -5  201.46   10.23
   5  -1  -5  216.80    9.95
  -5   1   5  204.56    9.78
  -5   1   5  193.39   10.64
   4  -1  -5  260.02   10.98
   4  -1  -5  252.10   10.59
  -4   1   5  225.30    9.78
  -4   1   5  247.17   11.52
   3  -1  -5  271.20    9.82
   3  -1  -5  268.82   11.15
  -3   1   5  276.14   10.16
  -3   1   5  256.82   11.41
   2  -1  -5  286.01   11.14
   2  -1  -5  264.12    8.30
  -2   1   5  262.07    8.54
  -2   1   5  264.68    9.53
  -2   1   5  258.66   11.16
   1  -1  -5   92.35    5.22
  -1   1   5   83.71    2.92
  -1   1   5   81.97    3.32
  -1   1   5   77.50    4.52
  -1   1   5   82.40    5.39
   0  -1  -5   59.81    4.24
   0  -1  -5   60.71    4.43
   0  -1  -5   61.49    3.62
   0   1   5   59.84    4.78
  -1  -1  -5  870.85   24.69
  -1  -1  -5  791.42   24.79
  -1  -1  -5  879.68   26.43
   1   1   5  885.68   27.47
   1   1   5  845.00   24.81
  -2  -1  -5  391.34   15.31
  -2  -1  -5  391.70   13.03
   2   1   5  401.29   15.02
   2   1   5  393.15   15.75
  -3  -1  -5  109.34    5.45
  -3  -1  -5  100.23    7.38
   3   1   5  108.10    7.66
   3   1   5  112.09    7.65
  -4  -1  -5   56.14    3.70
  -4  -1  -5   50.12    6.10
   4   1   5   58.98    6.79
  -5  -1  -5   60.72    3.92
  -5  -1  -5   67.49    7.49
   5   1   5   53.12    7.66
   5   1   5   52.54    7.66
  -6  -1  -5   35.67    7.43
   6   1   5   33.32    7.13
   6   1   5   34.73    8.25
  -7  -1  -5   -3.43    6.32
   7   1   5   -0.44    6.79
   7   1   5    4.59    7.02
  -8  -1  -5    5.01    7.12
   8   1   5    0.66    9.61
   8   1   5    5.45    8.52
  11  -2  -5    9.71    9.32
 -11   2   5   30.09   15.42
  10  -2  -5   23.54    9.34
 -10   2   5   15.01    6.66
 -10   2   5   -1.22    8.19
   9  -2  -5   69.90    9.93
  -9   2   5   52.77   10.17
  -9   2   5   64.88    7.59
   8  -2  -5    7.45    5.11
   8  -2  -5   15.73    3.54
  -8   2   5   13.55    4.97
   7  -2  -5  119.47    8.92
   7  -2  -5  131.36    8.15
  -7   2   5  120.11    8.73
  -7   2   5  110.49    8.49
   6  -2  -5  209.55   11.06
   6  -2  -5  176.36    9.72
  -6   2   5  192.64   10.44
   5  -2  -5  178.88    9.24
   5  -2  -5  172.98    9.37
  -5   2   5  181.70    9.46
  -5   2   5  173.28    8.85
   4  -2  -5  178.54    9.13
   4  -2  -5  185.78    8.28
  -4   2   5  172.86    8.41
  -4   2   5  184.42    9.24
   3  -2  -5   55.98    3.50
   3  -2  -5   47.35    4.38
  -3   2   5   63.64    4.35
  -3   2   5   60.76    3.92
  -3   2   5   69.55    5.05
   2  -2  -5 1271.64   36.45
   2  -2  -5 1287.70   31.24
  -2   2   5 1255.52   36.48
  -2   2   5 1243.62   35.10
  -2   2   5 1247.42   31.53
   1  -2  -5 1427.50   39.32
  -1   2   5 1423.98   38.72
  -1   2   5 1319.50   39.71
   0  -2  -5  108.56    6.70
   0  -2  -5  110.74    5.01
   0  -2  -5  121.85    6.38
   0   2   5  112.57    7.48
   0   2   5  129.81    4.82
  -1  -2  -5  381.76   15.23
  -1  -2  -5  394.59   13.21
   1   2   5  358.42   15.17
   1   2   5  373.97   12.85
  -2  -2  -5  100.08    6.96
  -2  -2  -5  104.79    5.45
   2   2   5  109.00    6.78
   2   2   5  112.41    8.08
  -3  -2  -5  520.38   15.38
  -3  -2  -5  490.19   19.96
   3   2   5  481.39   20.33
   3   2   5  484.91   18.76
  -4  -2  -5  142.85    5.89
  -4  -2  -5  144.87   10.12
   4   2   5  145.74   10.71
  -5  -2  -5   59.11    7.83
   5   2   5   39.91    8.17
   5   2   5   46.59    7.51
  -6  -2  -5   36.86    7.78
   6   2   5   58.51    9.77
   6   2   5   58.88    9.86
  -7  -2  -5   16.10    7.28
   7   2   5   15.79    9.40
   7   2   5   21.93    8.61
  -8  -2  -5    6.98    9.39
   8   2   5    0.71   10.06
  11  -3  -5   16.21    8.50
 -11   3   5    2.22    7.37
  10  -3  -5    4.14    4.89
  10  -3  -5    2.22    7.01
 -10   3   5   15.56    6.60
   9  -3  -5   -2.63    4.51
   9  -3  -5   -7.89    5.88
  -9   3   5    7.84    4.94
  -9   3   5   -2.31    4.98
   8  -3  -5   -1.80    4.13
  -8   3   5    2.53    4.18
  -8   3   5    4.07    3.29
   7  -3  -5   26.00    4.99
  -7   3   5   24.03    4.32
  -7   3   5   23.82    4.51
   6  -3  -5  112.19    7.89
   6  -3  -5   91.83    7.22
  -6   3   5   91.29    6.74
  -6   3   5   90.02    6.77
   5  -3  -5  198.98   11.06
   5  -3  -5  210.52    9.96
  -5   3   5  197.95    9.90
  -5   3   5  209.50    9.91
   4  -3  -5   57.57    5.37
   4  -3  -5   61.66    4.48
  -4   3   5   57.97    4.94
  -4   3   5   60.54    5.08
   3  -3  -5   11.12    1.96
   3  -3  -5    9.01    2.66
  -3   3   5   12.85    2.71
  -3   3   5   12.05    2.10
  -3   3   5   11.79    3.13
   2  -3  -5   24.95    3.43
  -2   3   5   16.81    2.98
  -2   3   5   19.30    2.96
   1  -3  -5  368.58   14.20
  -1   3   5  380.44   14.15
  -1   3   5  360.83   14.93
   0  -3  -5  492.65   18.55
   0  -3  -5  483.10   16.70
   0  -3  -5  481.55   14.88
   0   3   5  472.85   18.36
   0   3   5  482.71   14.17
  -1  -3  -5   86.27    6.71
  -1  -3  -5   97.38    5.49
   1   3   5   92.41    7.57
   1   3   5   85.79    5.24
  -2  -3  -5   70.54    6.07
  -2  -3  -5   61.80    4.39
   2   3   5   67.60    6.65
   2   3   5   64.23    5.27
  -3  -3  -5   24.23    3.08
  -3  -3  -5   18.77    4.43
   3   3   5   28.96    5.39
  -4  -3  -5   68.03    3.58
   4   3   5   57.19    7.32
   4   3   5   71.95    8.79
  -5  -3  -5    4.94    4.69
   5   3   5   17.31    6.97
  -6  -3  -5   12.69    6.29
   6   3   5    9.80    8.21
   6   3   5   16.33    8.43
  -7  -3  -5    7.28    7.61
   7   3   5   35.87   11.13
   7   3   5   17.95   10.93
  11  -4  -5    6.06    8.91
  11  -4  -5    8.77    7.12
 -11   4   5   -5.07    8.08
  10  -4  -5   14.78    6.76
  10  -4  -5   15.75    6.27
 -10   4   5   17.20    5.74
   9  -4  -5   13.31    4.77
   9  -4  -5   19.14    7.33
  -9   4   5    4.24    4.21
  -9   4   5    9.40    4.77
   8  -4  -5   49.47    7.51
   8  -4  -5   52.67    8.02
  -8   4   5   56.84    6.38
  -8   4   5   62.63    6.79
   7  -4  -5   68.65    7.02
   7  -4  -5   83.86    7.97
  -7   4   5   70.10    6.24
  -7   4   5   69.63    6.41
   6  -4  -5   81.81    6.76
  -6   4   5   84.61    6.91
  -6   4   5   77.53    5.52
   5  -4  -5   20.02    4.15
   5  -4  -5   30.52    4.14
  -5   4   5   22.18    3.92
  -5   4   5   23.43    3.99
   4  -4  -5  376.97   16.30
   4  -4  -5  379.18   12.96
  -4   4   5  368.52   14.87
  -4   4   5  360.56   14.00
   3  -4  -5 1108.48   29.20
   3  -4  -5 1103.18   28.21
   3  -4  -5 1103.74   34.67
  -3   4   5 1091.56   32.97
  -3   4   5 1051.81   32.91
   2  -4  -5   54.77    2.29
   2  -4  -5   59.42    5.11
  -2   4   5   51.96    4.97
  -2   4   5   53.29    4.72
   1  -4  -5  230.93   10.70
   1  -4  -5  245.34    7.97
  -1   4   5  226.20   10.99
  -1   4   5  235.88    7.42
  -1   4   5  226.71   11.69
   0  -4  -5   15.47    2.75
   0  -4  -5   13.56    3.61
   0   4   5   13.29    2.36
   0   4   5   15.95    4.23
  -1  -4  -5  359.52   16.50
  -1  -4  -5  370.44   13.67
   1   4   5  379.57   17.52
   1   4   5  382.26   13.58
  -2  -4  -5  205.32   12.28
  -2  -4  -5  230.14    9.29
   2   4   5  233.69   10.63
   2   4   5  222.68   13.52
  -3  -4  -5    8.46    4.43
  -3  -4  -5    9.12    2.38
   3   4   5   10.96    4.22
   3   4   5    5.38    4.31
  -4  -4  -5   46.64    8.71
   4   4   5   34.74    8.12
   4   4   5   42.12    7.38
  -5  -4  -5   -0.63    6.13
   5   4   5   23.10    7.76
   5   4   5    8.67    7.42
  -6  -4  -5   22.97    7.78
   6   4   5   39.01   11.25
   6   4   5   42.24   10.80
  12  -5  -5  -10.06    9.45
 -12   5   5   15.04    8.58
  11  -5  -5    3.39    8.94
 -11   5   5    9.30    6.99
  10  -5  -5   -3.72    7.40
  10  -5  -5    4.89    5.04
 -10   5   5    0.23    5.11
   9  -5  -5    0.16    5.12
   9  -5  -5    2.40    5.59
  -9   5   5    5.11    7.09
  -9   5   5   -5.50    4.38
   8  -5  -5    6.94    5.77
   8  -5  -5   13.74    4.83
  -8   5   5   12.10    3.76
  -8   5   5   12.75    4.94
   7  -5  -5   41.57    5.99
   7  -5  -5   38.76    6.99
  -7   5   5   33.13    5.82
  -7   5   5   36.75    5.10
   6  -5  -5   37.63    5.89
   6  -5  -5   35.60    5.60
  -6   5   5   33.07    4.56
  -6   5   5   37.70    4.71
   5  -5  -5    5.60    3.26
   5  -5  -5   13.15    3.95
  -5   5   5    5.15    2.65
  -5   5   5    6.02    2.59
   4  -5  -5   27.70    4.75
   4  -5  -5   35.78    4.01
  -4   5   5   34.96    4.46
  -4   5   5   32.02    4.37
   3  -5  -5  147.38    6.22
   3  -5  -5  144.13    9.47
   3  -5  -5  145.07    5.52
  -3   5   5  149.55    8.72
  -3   5   5  146.71    8.65
   2  -5  -5  266.32   12.90
   2  -5  -5  262.25    8.30
   2  -5  -5  254.95    8.95
  -2   5   5  244.99   12.36
  -2   5   5  254.59   12.47
   1  -5  -5   55.11    5.10
   1  -5  -5   72.84    4.63
  -1   5   5   71.73    5.73
  -1   5   5   65.91    3.79
  -1   5   5   59.64    7.47
   0  -5  -5    4.55    3.02
   0  -5  -5    6.51    2.63
   0   5   5    5.89    2.45
   0   5   5    4.38    3.42
  -1  -5  -5   -0.20    2.43
  -1  -5  -5   -5.80    3.76
   1   5   5   -1.99    3.63
  -2  -5  -5   58.54    4.96
  -2  -5  -5   61.32    8.15
   2   5   5   59.76    9.03
   2   5   5   56.93    6.06
  -3  -5  -5   21.05    5.57
   3   5   5   31.93    5.86
   3   5   5   25.33    7.33
  -4  -5  -5    3.50    5.48
   4   5   5    7.38    7.48
  -5  -5  -5   15.71    8.94
   5   5   5   12.47    7.77
   5   5   5   -0.68    9.41
  -6  -5  -5   -0.72    8.73
   6   5   5  -14.89   11.08
   6   5   5   19.51   11.65
  12  -6  -5   26.57   11.08
  12  -6  -5  -10.71    8.15
 -12   6   5    6.02    8.57
  11  -6  -5   10.53    8.21
  11  -6  -5    0.91    8.90
  10  -6  -5    6.70    8.20
  10  -6  -5   10.04    6.73
 -10   6   5    0.56    5.73
   9  -6  -5   18.98    5.96
   9  -6  -5   15.80    7.73
  -9   6   5   17.71    5.95
   8  -6  -5   16.17    5.31
   8  -6  -5   43.75    8.19
  -8   6   5   26.71    5.61
  -8   6   5   24.55    5.10
   7  -6  -5   19.57    5.46
   7  -6  -5   13.00    4.36
  -7   6   5   18.32    4.19
  -7   6   5   15.28    3.60
   6  -6  -5   63.59    6.77
   6  -6  -5   44.07    6.93
  -6   6   5   42.82    5.80
  -6   6   5   47.77    5.19
   5  -6  -5  279.22   11.80
   5  -6  -5  262.67   14.79
  -5   6   5  277.86   13.42
  -5   6   5  267.82   11.99
   4  -6  -5   39.09    5.79
   4  -6  -5   38.91    4.42
  -4   6   5   30.59    4.47
  -4   6   5   35.04    5.04
   3  -6  -5   58.95    4.09
   3  -6  -5   47.92    6.48
   3  -6  -5   54.68    4.73
  -3   6   5   51.75    5.73
  -3   6   5   55.95    5.82
   2  -6  -5    7.82    3.31
   2  -6  -5   12.10    2.94
   2  -6  -5   14.21    3.46
  -2   6   5    9.47    3.23
   1  -6  -5  145.68    8.95
  -1   6   5  139.41    9.39
  -1   6   5  141.38    6.53
  -1   6   5  129.30    9.59
   0  -6  -5  261.98   14.65
   0  -6  -5  246.62   11.96
   0   6   5  244.95   14.29
   0   6   5  255.39   10.33
  -1  -6  -5   13.00    4.67
  -1  -6  -5   11.74    3.22
   1   6   5   17.10    4.34
   1   6   5   27.10    6.92
  -2  -6  -5   14.46    5.00
  -2  -6  -5   17.60    3.41
   2   6   5   10.77    6.61
  -3  -6  -5    1.17    6.34
   3   6   5   14.76    6.08
   3   6   5   16.59    7.15
  -4  -6  -5   34.26    8.86
   4   6   5   24.81    9.97
   4   6   5   43.64    8.05
  -5  -6  -5   12.95    8.61
   5   6   5   20.66   12.42
   5   6   5   24.69    9.56
  11  -7  -5  -11.34    8.36
  11  -7  -5  -10.47   10.42
 -11   7   5   -2.98    7.38
  10  -7  -5    6.26    7.48
  10  -7  -5   -4.23    8.71
 -10   7   5   -0.50    6.81
   9  -7  -5   -2.85    5.32
   9  -7  -5    8.70    7.73
  -9   7   5   -4.04    5.26
   8  -7  -5    8.70    5.63
   8  -7  -5   15.67    7.45
  -8   7   5    9.93    4.53
   7  -7  -5    2.83    4.43
   7  -7  -5   12.06    5.47
  -7   7   5   -7.40    3.89
  -7   7   5    6.99    3.41
   6  -7  -5    1.53    4.73
   6  -7  -5    9.10    4.83
  -6   7   5    1.07    3.73
  -6   7   5    3.34    3.32
   5  -7  -5   56.75    7.77
   5  -7  -5   65.83    6.76
  -5   7   5   56.90    6.79
  -5   7   5   63.63    6.13
   4  -7  -5   73.61    8.36
   4  -7  -5   77.50    6.35
  -4   7   5   76.83    6.97
  -4   7   5   72.16    6.88
   3  -7  -5   56.64    5.78
   3  -7  -5   61.78    7.73
  -3   7   5   61.09    6.43
  -3   7   5   66.53    7.99
   2  -7  -5   14.38    4.04
   2  -7  -5    4.59    4.11
  -2   7   5    7.85    4.39
  -2   7   5    8.37    4.21
   1  -7  -5   30.45    6.14
   1  -7  -5   34.25    5.40
  -1   7   5   28.84    4.08
  -1   7   5   20.98    5.97
   0  -7  -5   23.65    4.51
   0   7   5   22.77    7.12
  -1  -7  -5   26.64    4.97
  -1  -7  -5   23.38    5.87
   1   7   5   35.00    6.04
   1   7   5   36.84    8.03
  -2  -7  -5    5.57    6.43
   2   7   5    0.47    7.53
   2   7   5    3.59    5.90
  -3  -7  -5    0.56    7.26
   3   7   5   28.81   22.85
   3   7   5   11.50    7.28
  -4  -7  -5    5.66    8.55
   4   7   5    5.80   11.89
  11  -8  -5    1.44    7.87
  11  -8  -5  -10.48   10.61
 -11   8   5   -4.24    8.61
  10  -8  -5   24.08   11.65
  10  -8  -5   10.06    7.98
 -10   8   5    1.03    6.14
   9  -8  -5    7.31    6.18
   9  -8  -5   18.02    9.08
  -9   8   5   16.81    6.24
   8  -8  -5    8.63    7.58
   8  -8  -5   13.86    6.52
  -8   8   5   11.10    6.00
   7  -8  -5   45.19    8.38
   7  -8  -5   53.50    7.95
  -7   8   5   31.02    6.01
   6  -8  -5    3.58    5.45
   6  -8  -5   18.77    5.74
  -6   8   5   10.75    4.80
  -6   8   5   12.79    4.55
   5  -8  -5   14.14    4.98
   5  -8  -5    7.19    5.89
  -5   8   5    9.05    4.43
  -5   8   5    7.89    4.73
   4  -8  -5   18.33    5.35
   4  -8  -5   23.46    4.98
  -4   8   5   23.62    5.31
  -4   8   5   18.81    4.71
   3  -8  -5   38.69    6.03
   3  -8  -5   45.77    6.80
  -3   8   5   32.07    5.86
  -3   8   5   41.09    7.79
   2  -8  -5  136.46   10.32
   2  -8  -5  154.24    9.71
  -2   8   5  150.16   11.69
  -2   8   5  123.91   10.08
   1  -8  -5   19.78    5.65
   1  -8  -5   20.95    5.05
  -1   8   5   12.98    6.81
   0  -8  -5    1.92    6.11
   0  -8  -5    6.94    4.89
   0   8   5    9.27    5.20
   0   8   5   -1.80    7.04
  -1  -8  -5    0.70    5.85
   1   8   5   19.11    8.21
   2   8   5    1.21   10.22
  -3  -8  -5    1.64    8.84
   3   8   5   21.84   12.30
  11  -9  -5  -11.09   12.35
  11  -9  -5   -1.90    9.36
 -11   9   5    5.02    9.57
  10  -9  -5  -11.29   10.80
  10  -9  -5   13.73    7.34
 -10   9   5    5.31    7.17
   9  -9  -5  -13.83    9.78
   9  -9  -5    5.88    7.54
  -9   9   5   -2.68    7.12
   8  -9  -5   12.34    6.21
   8  -9  -5    8.39    8.45
   7  -9  -5   16.97    6.37
   7  -9  -5   32.05    7.66
  -7   9   5   18.76    5.29
  -7   9   5   13.53    6.00
   6  -9  -5   29.85    6.73
   6  -9  -5   15.10    6.91
  -6   9   5   18.25    5.70
   5  -9  -5   23.59    5.24
   5  -9  -5   25.37    6.49
  -5   9   5   10.92    4.70
  -5   9   5   16.36    6.09
   4  -9  -5   -4.66    5.16
  -4   9   5    1.88    4.70
  -4   9   5    0.92    5.83
   3  -9  -5   16.90    6.49
  -3   9   5   17.34    5.33
  -3   9   5   20.46    7.50
   2  -9  -5   10.84    5.56
   2  -9  -5   16.53    5.78
  -2   9   5   10.51    6.33
  -2   9   5   12.67    5.09
   1  -9  -5   19.84    5.78
  -1   9   5   29.77    9.47
   0  -9  -5    2.31    9.13
   0  -9  -5   12.64    8.27
   0   9   5   -2.23    7.78
  -1  -9  -5   -3.15    7.04
   1   9   5  -14.01    8.96
  10 -10  -5    1.37    8.65
  10 -10  -5    8.93   13.11
 -10  10   5   11.41    9.03
   9 -10  -5  -12.61   20.46
   9 -10  -5    4.89    9.91
  -9  10   5   -3.35    8.24
   8 -10  -5   -3.45    7.77
  -8  10   5   -3.79    6.96
   7 -10  -5   -0.25    6.21
  -7  10   5   -4.69    5.63
   6 -10  -5    7.17    7.01
  -6  10   5   11.18    6.63
  -6  10   5   15.03    6.47
   5 -10  -5   21.24    7.40
  -5  10   5   19.04    7.03
  -5  10   5   20.96    6.63
   4 -10  -5   27.87    7.17
  -4  10   5   41.18    7.63
  -4  10   5   42.41    9.12
   3 -10  -5    4.18    6.83
  -3  10   5    9.24    7.81
  -3  10   5   -5.74    5.90
   2 -10  -5   13.06    7.53
  -2  10   5    8.05    9.24
   1 -10  -5   -8.15    6.78
   1 -10  -5   11.58   13.85
  -1  10   5   -1.08    9.16
   0 -10  -5   -2.79    8.60
   0  10   5   13.36   10.30
   9 -11  -5    2.13    9.55
  -9  11   5    6.35    8.99
   8 -11  -5    8.76    8.55
  -8  11   5   13.07    8.38
  -7  11   5   -0.70    7.78
   6 -11  -5   -3.82    7.42
  -6  11   5    2.58   14.64
  -6  11   5    7.32    8.69
   5 -11  -5    2.01    8.38
  -5  11   5   -6.61    7.69
  -5  11   5    8.05    9.93
   4 -11  -5    3.73    7.76
  -4  11   5    8.47    9.71
   3 -11  -5   12.10    9.35
   3 -11  -5    7.78    7.68
  -3  11   5   25.04   10.40
  -3  11   5   10.74    8.30
   2 -11  -5   -5.95    8.63
   2 -11  -5    9.47    7.74
   7 -12  -5   -2.94    8.91
   6 -12  -5   -5.69    9.54
  -6  12   5   11.51    8.22
   5 -12  -5   13.94    9.78
  -5  12   5  -15.68   10.16
  -5  12   5   17.21    9.75
  -2  13  -6    0.22    7.66
   2 -13   6   11.52   11.89
   2 -13   6    3.05   13.92
  -3  13  -6   -7.68    7.42
   3 -13   6    3.64   14.83
   3 -13   6   17.86   10.12
  -4  13  -6    2.56    8.60
  -5  13  -6   12.17    7.61
  -6  13  -6   -8.21    6.99
   6 -13   6   14.78   13.42
  -7  13  -6   -4.17    7.77
  -7  13  -6    4.44    8.10
   7 -13   6    5.07   14.13
   0  12  -6   17.03   11.25
  -1  12  -6    8.78    6.15
  -1  12  -6   15.88   11.83
   1 -12   6   23.41   10.71
  -2  12  -6   14.63    6.66
  -2  12  -6   -2.42    9.66
   2 -12   6   10.49    9.62
   2 -12   6   -1.37   10.79
  -3  12  -6   -6.35    6.00
   3 -12   6   -1.08   11.92
   3 -12   6    5.92    7.88
  -4  12  -6    1.01    5.55
  -4  12  -6   17.08    6.19
   4 -12   6    9.48    7.65
   4 -12   6    8.83   10.09
  -5  12  -6    5.17    6.17
  -5  12  -6    2.50    5.70
   5 -12   6   10.99   11.41
  -6  12  -6    8.66    6.97
  -6  12  -6    2.65    6.23
   6 -12   6   -3.96   10.24
  -7  12  -6   -9.61    7.25
  -7  12  -6    1.52    6.71
   7 -12   6    7.53   10.56
  -8  12  -6    4.82    6.63
  -8  12  -6   -5.23    7.47
   8 -12   6  -18.26   12.36
  -9  12  -6    2.42    7.65
  -9  12  -6   -5.06    8.82
   9 -12   6   -7.48   11.79
   2  11  -6   10.47   12.04
  -2 -11   6   -9.75   11.25
   1  11  -6  -11.61    9.57
   0  11  -6    7.66    5.66
   0  11  -6   -4.45    7.15
   0 -11   6   14.45    8.88
  -1  11  -6   27.39    8.93
  -1  11  -6    1.94    4.93
   1 -11   6   10.50    5.97
   1 -11   6    9.88    8.70
  -2  11  -6   12.07    7.00
  -2  11  -6    2.59    5.13
   2 -11   6   15.92    8.10
   2 -11   6    9.96    5.84
  -3  11  -6    5.60    5.27
  -3  11  -6    3.59    4.90
   3 -11   6    0.91    6.27
   3 -11   6   -1.74    9.84
  -4  11  -6   -9.70    4.92
  -4  11  -6   -3.09    4.43
   4 -11   6   -8.15    6.59
   4 -11   6   11.24   10.32
  -5  11  -6    3.66    5.03
  -5  11  -6    5.84    5.28
   5 -11   6   18.56   11.03
  -6  11  -6    6.66    5.15
  -6  11  -6    4.58    5.07
   6 -11   6   11.99    9.64
  -7  11  -6   16.39    6.45
  -7  11  -6    6.12    5.51
   7 -11   6    3.18    8.53
  -8  11  -6    8.82    7.09
  -8  11  -6   -3.27    5.84
   8 -11   6   12.93   11.00
  -9  11  -6    6.00    7.99
  -9  11  -6    4.17    6.53
   9 -11   6    9.09   10.35
   3  10  -6   19.40   10.83
  -3 -10   6   -5.08   10.15
   2  10  -6    0.83    8.85
  -2 -10   6   -2.81    9.23
  -2 -10   6   19.90    7.54
   1  10  -6   18.93    8.24
   1  10  -6   21.17    4.97
  -1 -10   6   15.09    9.38
  -1 -10   6   13.40    5.57
   0  10  -6   26.52    7.10
   0  10  -6   19.67    4.40
   0 -10   6    7.47    8.61
  -1  10  -6    5.81    4.28
  -1  10  -6   -4.85    6.36
   1 -10   6   -5.48    6.68
   1 -10   6   -6.05    4.69
  -2  10  -6    8.51    3.81
  -2  10  -6    9.34    6.79
  -2  10  -6    4.81    3.71
   2 -10   6    0.92    5.90
  -3  10  -6   17.10    4.94
   3 -10   6   26.04    8.80
   3 -10   6   28.82    6.79
  -4  10  -6   11.39    4.20
  -4  10  -6   22.56    4.35
   4 -10   6   16.53    5.32
   4 -10   6   18.59    7.91
  -5  10  -6   -0.95    4.17
  -5  10  -6    0.56    4.42
   5 -10   6    5.53    7.03
   5 -10   6    5.69    4.79
  -6  10  -6   -0.60    4.98
  -6  10  -6   -8.18    4.52
   6 -10   6   -6.56    8.05
  -7  10  -6    1.92    5.46
  -7  10  -6    5.11    5.10
   7 -10   6    3.98    8.83
  -8  10  -6   17.60    6.54
  -8  10  -6   14.14    5.72
   8 -10   6    9.61   10.42
  -9  10  -6    2.94    5.78
  -9  10  -6   12.44    7.71
 -10  10  -6    2.55    7.17
 -10  10  -6    0.80    9.01
  10 -10   6   -9.00   12.68
   4   9  -6    7.18    9.02
  -4  -9   6    5.59   10.76
  -4  -9   6   -8.94    7.48
   3   9  -6    1.94    8.24
  -3  -9   6    9.10    5.62
  -3  -9   6  -12.94    8.90
   2   9  -6    9.72    6.27
   2   9  -6   19.95    8.18
  -2  -9   6    8.59    7.44
  -2  -9   6   13.11    5.09
   1   9  -6    5.58    5.85
   1   9  -6   10.40    3.76
  -1  -9   6   20.49    6.73
  -1  -9   6   18.72    5.10
   0   9  -6   23.67    4.27
   0   9  -6   35.27    7.62
   0  -9   6   25.77    4.71
   0  -9   6   28.65    7.52
  -1   9  -6    5.18    3.51
  -1   9  -6    4.70    4.41
   1  -9   6    5.90    4.85
   1  -9   6    6.90    3.55
  -2   9  -6    4.20    3.08
  -2   9  -6    7.09    5.23
   2  -9   6    3.54    5.04
  -3   9  -6   27.55    4.48
  -3   9  -6   29.90    4.89
   3  -9   6   40.69    9.40
   3  -9   6   26.23    5.81
  -4   9  -6   32.58    5.71
  -4   9  -6   33.12    4.94
   4  -9   6   47.23    6.52
   4  -9   6   27.79    7.52
  -5   9  -6   26.58    5.78
  -5   9  -6   23.20    4.19
   5  -9   6   31.51    5.54
   5  -9   6   13.70    7.43
  -6   9  -6   18.55    4.69
  -6   9  -6   20.68    5.26
   6  -9   6   25.28    8.52
  -7   9  -6    9.45    4.72
  -7   9  -6    5.40    5.16
   7  -9   6    0.68    7.49
  -8   9  -6   10.54    6.05
  -8   9  -6   -5.16    4.71
   8  -9   6   -9.85    8.01
  -9   9  -6   21.05    7.87
   9  -9   6   25.86   10.61
 -10   9  -6   -6.76    7.72
 -10   9  -6   -8.54    7.21
  10  -9   6   -4.05   12.49
   5   8  -6   16.72    9.28
  -5  -8   6   -5.13    7.19
  -5  -8   6    1.26   11.51
   4   8  -6   24.17    8.09
  -4  -8   6    6.42    9.98
  -4  -8   6   -7.58    5.82
   3   8  -6   50.59    8.53
  -3  -8   6   39.57    7.02
  -3  -8   6   40.26    9.94
   2   8  -6   30.63    4.38
   2   8  -6   25.75    6.32
  -2  -8   6   24.51    7.36
  -2  -8   6   21.78    4.61
   1   8  -6    1.79    4.99
   1   8  -6    3.30    3.01
  -1  -8   6    8.89    6.50
  -1  -8   6    6.62    3.53
   0   8  -6   10.92    3.92
   0   8  -6    2.66    3.49
   0  -8   6    9.87    3.27
   0  -8   6    0.03    5.42
  -1   8  -6   74.66    6.88
  -1   8  -6   65.25    6.21
   1  -8   6   78.60    8.19
   1  -8   6   76.90    5.74
  -2   8  -6   89.24    7.83
  -2   8  -6   81.03    5.45
  -2   8  -6   69.84    6.69
   2  -8   6   72.06    7.73
  -3   8  -6    0.10    2.94
  -3   8  -6    5.06    2.49
   3  -8   6    8.91    6.04
   3  -8   6   -3.65    3.45
  -4   8  -6    3.89    2.94
   4  -8   6    0.82    6.26
  -5   8  -6   -1.61    3.13
  -5   8  -6    7.56    3.38
   5  -8   6   -2.37    2.95
   5  -8   6   10.81    5.79
  -6   8  -6   53.77    6.09
  -6   8  -6   53.60    6.38
   6  -8   6   47.01    9.76
  -7   8  -6   37.02    6.07
  -7   8  -6   33.89    5.78
   7  -8   6   40.07    9.47
  -8   8  -6    0.95    4.33
  -8   8  -6    3.61    5.45
   8  -8   6    1.24    8.22
  -9   8  -6    0.69    5.88
  -9   8  -6   12.27    6.22
   9  -8   6   11.81   10.08
 -10   8  -6   -4.16    7.98
 -10   8  -6   -2.32    6.66
  10  -8   6   -7.18   11.50
   6   7  -6   14.22   10.90
  -6  -7   6   -4.18    7.40
  -6  -7   6   -3.19   12.33
   5   7  -6   16.29    8.68
  -5  -7   6    5.22    9.92
  -5  -7   6   -4.45    5.86
   4   7  -6   11.75    6.72
  -4  -7   6   -1.57    4.70
   3   7  -6   20.52    3.66
   3   7  -6   15.14    6.07
  -3  -7   6   21.90    4.56
  -3  -7   6   22.70    8.69
   2   7  -6   36.29    6.16
   2   7  -6   36.56    4.86
  -2  -7   6   38.59    8.62
  -2  -7   6   31.62    4.72
   1   7  -6   21.37    3.96
   1   7  -6   18.23    5.38
  -1  -7   6   19.02    4.93
  -1  -7   6   17.58    3.42
   0   7  -6   22.65    3.89
   0   7  -6   16.12    4.21
   0  -7   6   20.74    3.36
   0  -7   6   18.01    5.06
  -1   7  -6   72.26    4.32
  -1   7  -6   75.51    6.52
  -1   7  -6   81.01    6.28
   1  -7   6   69.19    7.12
  -2   7  -6   25.90    4.75
  -2   7  -6   47.38    5.31
  -2   7  -6   33.70    3.49
   2  -7   6   40.63    7.90
   2  -7   6   47.70    5.28
  -3   7  -6   76.66    6.42
  -3   7  -6   73.14    4.98
   3  -7   6   85.47    6.70
   3  -7   6   64.43    8.28
  -4   7  -6   52.00    4.64
  -4   7  -6   40.24    4.94
   4  -7   6   47.42    5.19
   4  -7   6   62.68    7.62
  -5   7  -6   31.61    4.76
  -5   7  -6   39.18    4.35
   5  -7   6   35.03    3.81
   5  -7   6   45.94    7.31
  -6   7  -6    9.89    3.24
  -6   7  -6   11.15    3.75
   6  -7   6    4.99    1.85
   6  -7   6    5.49    5.70
  -7   7  -6   35.31    6.39
  -7   7  -6   30.70    5.54
   7  -7   6   21.92    8.53
  -8   7  -6   20.00    5.72
   8  -7   6   19.01    8.87
  -9   7  -6    7.48    6.23
  -9   7  -6   15.88    5.77
   9  -7   6   12.15   10.24
 -10   7  -6    0.52    8.24
 -10   7  -6   -0.02    6.57
  10  -7   6    2.64   10.51
   7   6  -6  -10.01    9.99
  -7  -6   6    3.70    7.88
  -7  -6   6   -1.43   16.79
   6   6  -6   10.93    7.77
  -6  -6   6   -1.91    6.18
  -6  -6   6    4.11   11.82
   5   6  -6   41.52    9.13
  -5  -6   6   50.97    7.59
  -5  -6   6   59.63   12.38
   4   6  -6   45.06    7.04
   4   6  -6   45.51    4.65
  -4  -6   6   46.83    9.50
  -4  -6   6   47.54    5.85
   3   6  -6   20.13    5.43
   3   6  -6   20.31    3.57
  -3  -6   6   32.83    7.79
  -3  -6   6   20.21    4.40
   2   6  -6   63.81    5.05
   2   6  -6   54.47    6.29
  -2  -6   6   60.99    7.85
  -2  -6   6   58.08    4.59
   1   6  -6   74.84    6.97
   1   6  -6   85.16    5.67
  -1  -6   6   72.64    9.40
  -1  -6   6   77.86    4.72
   0   6  -6  223.91   10.24
   0  -6   6  235.15   13.14
   0  -6   6  224.71    8.15
   0  -6   6  215.49    7.78
  -1   6  -6   74.84    6.00
  -1   6  -6   68.15    5.47
  -1   6  -6   74.08    3.85
   1  -6   6   55.32    6.11
   1  -6   6   58.22    3.55
  -2   6  -6   95.48    4.84
  -2   6  -6  100.33    6.90
   2  -6   6   90.83    8.89
   2  -6   6  100.60    7.27
  -3   6  -6   29.58    3.14
  -3   6  -6   25.38    3.85
   3  -6   6   29.39    7.08
   3  -6   6   36.92    4.40
  -4   6  -6  142.53    8.38
  -4   6  -6  148.45    7.64
   4  -6   6  170.38   11.90
   4  -6   6  155.46    7.70
  -5   6  -6  257.91   12.60
  -5   6  -6  270.87   11.86
   5  -6   6  264.19    9.68
   5  -6   6  259.83   15.77
  -6   6  -6   14.51    4.27
  -6   6  -6   28.76    4.49
   6  -6   6   19.08    3.05
  -7   6  -6   13.76    4.92
  -7   6  -6   11.05    3.33
   7  -6   6   11.16    6.26
  -8   6  -6    2.87    4.42
  -8   6  -6   10.00    5.38
   8  -6   6    4.51    7.22
  -9   6  -6    9.70    5.92
  -9   6  -6    6.79    5.34
   9  -6   6    6.29    8.73
 -10   6  -6    8.66    6.13
 -10   6  -6   -0.02    8.78
  10  -6   6    0.65   12.83
   8   5  -6    6.87   10.89
  -8  -5   6   -2.29    8.99
  -8  -5   6   -4.51   18.40
   7   5  -6    3.98    8.96
  -7  -5   6   18.51   13.39
  -7  -5   6   12.06    7.01
   6   5  -6    1.77    6.19
  -6  -5   6    4.95    5.45
  -6  -5   6    1.29    8.07
   5   5  -6   24.22    7.48
  -5  -5   6   35.45    6.10
  -5  -5   6   28.77    7.78
   4   5  -6   29.02    5.79
   4   5  -6   19.86    3.49
  -4  -5   6   28.71    4.81
  -4  -5   6   25.03    5.92
   3   5  -6   26.64    5.91
   3   5  -6   19.51    3.28
  -3  -5   6   20.04    6.19
  -3  -5   6   25.38    3.92
   2   5  -6    0.53    3.08
   2   5  -6    1.97    1.92
  -2  -5   6    5.08    1.98
   1   5  -6   26.82    3.90
   1   5  -6   27.30    3.46
  -1  -5   6   24.15    5.14
  -1  -5   6   22.88    2.48
  -1  -5   6   22.83    2.40
   0   5  -6   63.18    5.46
   0   5  -6   66.02    5.01
   0  -5   6   73.45    6.86
   0  -5   6   71.01    2.99
  -1   5  -6  170.34    5.80
  -1   5  -6  161.49    8.51
  -1   5  -6  167.66    8.83
   1  -5   6  177.95    5.92
   1  -5   6  168.86    9.71
  -2   5  -6   81.66    5.52
  -2   5  -6   80.78    4.06
   2  -5   6   83.21    6.23
   2  -5   6   75.43    4.32
   2  -5   6   78.71    7.50
  -3   5  -6   14.47    2.57
  -3   5  -6    9.69    2.80
   3  -5   6   10.93    4.36
   3  -5   6   14.24    2.75
  -4   5  -6   28.06    3.77
  -4   5  -6   32.14    3.99
   4  -5   6   41.19    3.83
   4  -5   6   33.36    5.63
  -5   5  -6  118.08    7.51
   5  -5   6   99.53    5.88
   5  -5   6  111.19    9.87
  -6   5  -6   55.52    6.25
  -6   5  -6   53.69    5.32
   6  -5   6   55.54    8.28
   6  -5   6   64.45    4.40
  -7   5  -6   15.19    3.85
  -7   5  -6   13.85    4.25
   7  -5   6    3.35    6.11
   7  -5   6   15.09    3.52
  -8   5  -6   14.71    4.36
  -8   5  -6   22.20    6.02
   8  -5   6   28.65    9.27
  -9   5  -6    7.33    4.98
  -9   5  -6    8.93    6.45
   9  -5   6   -9.20    8.78
 -10   5  -6    0.76    8.45
  10  -5   6   23.98   12.68
   8   4  -6   22.85   10.37
  -8  -4   6   33.77   15.05
  -7  -4   6   31.87   10.88
  -7  -4   6   19.54    6.96
   6   4  -6   91.38    9.46
  -6  -4   6   72.26   11.54
  -6  -4   6   91.29    8.14
   5   4  -6   41.14    3.83
  -5  -4   6   47.97   10.09
  -5  -4   6   55.60    6.38
   4   4  -6  102.32    5.82
   4   4  -6  102.00    8.41
  -4  -4   6  119.61   11.34
  -4  -4   6  117.32    7.16
   3   4  -6    3.15    1.82
  -3  -4   6    5.59    2.21
   2   4  -6  452.51   15.44
   2   4  -6  433.33   17.44
  -2  -4   6  460.02   20.32
  -2  -4   6  457.47   13.75
   1   4  -6  168.39    8.62
   1   4  -6  166.29    7.75
  -1  -4   6  152.92    5.01
  -1  -4   6  152.54    4.95
  -1  -4   6  147.34    9.87
   0   4  -6  257.15   10.70
   0   4  -6  268.94   11.33
   0  -4   6  240.29   12.20
  -1   4  -6  270.80   11.15
  -1   4  -6  268.26   11.49
  -1   4  -6  255.54    8.09
   1  -4   6  274.68   12.30
   1  -4   6  277.67    8.08
  -2   4  -6  118.47    6.76
  -2   4  -6  117.69    5.18
   2  -4   6  119.82    7.16
   2  -4   6  125.40    8.97
   2  -4   6  109.24    5.27
  -3   4  -6 1061.46   30.42
  -3   4  -6 1069.81   32.22
   3  -4   6 1062.21   35.96
   3  -4   6 1087.16   31.34
  -4   4  -6  153.43    7.97
  -4   4  -6  148.22    8.21
   4  -4   6  169.89    7.86
   4  -4   6  148.11   10.33
  -5   4  -6   77.55    6.42
  -5   4  -6   84.87    6.23
   5  -4   6   78.93    5.40
   5  -4   6   85.75    8.82
  -6   4  -6   34.87    5.86
  -6   4  -6   26.35    4.67
   6  -4   6   25.09    6.87
   6  -4   6   23.68    4.25
  -7   4  -6   35.55    5.14
  -7   4  -6   28.81    5.78
   7  -4   6   30.16    5.36
   7  -4   6   32.36    8.09
  -8   4  -6   52.76    8.37
  -8   4  -6   38.93    5.91
   8  -4   6   43.47    6.57
   8  -4   6   38.68    9.07
  -9   4  -6    3.30    4.80
  -9   4  -6    4.34    7.24
   9  -4   6   14.23   10.12
 -10   4  -6   -2.12    8.59
  10  -4   6    4.94   11.47
   9   3  -6    1.45    9.91
  -9  -3   6    0.41   14.87
  -9  -3   6    9.22    8.60
   8   3  -6    6.47    6.58
  -8  -3   6   -1.91    6.49
  -8  -3   6   -8.35   11.50
   7   3  -6   14.29    5.90
  -7  -3   6    3.65    5.45
  -7  -3   6   24.43    9.17
   6   3  -6   19.15    5.71
   6   3  -6   27.00    3.61
  -6  -3   6   36.95    7.85
  -6  -3   6   19.13    4.88
   5   3  -6   25.69    4.92
   5   3  -6   19.71    3.34
  -5  -3   6   25.62    4.48
  -5  -3   6   29.19    6.05
   4   3  -6   26.57    5.41
   4   3  -6   22.87    3.13
  -4  -3   6   22.86    3.62
  -4  -3   6   25.67    6.75
   3   3  -6   40.90    4.45
   3   3  -6   34.08    3.44
  -3  -3   6   36.45    4.87
  -3  -3   6   37.14    3.20
   2   3  -6  127.17    7.57
   2   3  -6  121.46    5.00
   2   3  -6  129.96    6.67
  -2  -3   6  124.96    8.54
  -2  -3   6  144.51    5.17
   1   3  -6   93.26    6.02
   1   3  -6   93.61    5.55
  -1  -3   6   87.07    6.77
   0   3  -6  190.25    8.64
   0   3  -6  191.93    8.56
   0  -3   6  189.01   10.00
  -1   3  -6    0.60    1.28
  -1   3  -6    0.41    0.91
   1  -3   6    1.47    1.10
   1  -3   6    0.64    1.67
   1  -3   6    1.62    2.79
  -2   3  -6   15.16    2.62
  -2   3  -6   13.06    2.21
   2  -3   6   18.08    3.59
   2  -3   6   14.04    2.95
  -3   3  -6  332.32   12.82
  -3   3  -6  336.65   12.42
   3  -3   6  315.60   12.38
   3  -3   6  323.66   15.19
  -4   3  -6  284.38   12.05
  -4   3  -6  273.77   11.32
   4  -3   6  264.14   14.24
   4  -3   6  265.22   11.30
  -5   3  -6   42.93    5.11
  -5   3  -6   33.06    4.18
   5  -3   6   29.53    6.11
   5  -3   6   34.35    4.32
  -6   3  -6   20.11    4.52
  -6   3  -6   21.21    3.80
   6  -3   6   40.43    8.01
   6  -3   6   26.97    4.73
  -7   3  -6    9.95    4.34
  -7   3  -6    4.00    3.29
   7  -3   6   -2.62    3.85
   7  -3   6  -11.27    6.60
  -8   3  -6    3.75    5.10
  -8   3  -6   16.65    6.60
   8  -3   6    0.25    8.10
  -9   3  -6   13.88    6.50
   9  -3   6   12.20    9.51
 -10   3  -6   -2.20    7.95
  10  -3   6    8.83   11.34
 -10  -2   6   82.67   23.73
   9   2  -6    9.00    7.88
  -9  -2   6   24.66   12.92
  -9  -2   6    8.95    7.91
   8   2  -6   61.23    8.68
  -8  -2   6   70.25   14.73
  -8  -2   6   77.97    9.05
   7   2  -6   56.14    7.00
   7   2  -6   45.82    4.45
  -7  -2   6   67.37    7.51
  -7  -2   6   56.93   11.70
   6   2  -6  134.09   10.28
   6   2  -6  135.40    6.83
  -6  -2   6  140.68   12.64
  -6  -2   6  113.89    9.86
   5   2  -6   35.94    3.93
   5   2  -6   51.78    6.13
  -5  -2   6   41.17    7.00
  -5  -2   6   35.33    4.63
   4   2  -6  233.34    9.53
   4   2  -6  225.73   11.67
  -4  -2   6  239.40    9.66
  -4  -2   6  230.85   13.17
   3   2  -6  410.71   14.23
   3   2  -6  414.59   15.75
  -3  -2   6  412.88   13.08
  -3  -2   6  385.66   17.58
   2   2  -6   60.25    4.81
   2   2  -6   64.87    4.51
   2   2  -6   60.97    3.05
  -2  -2   6   67.18    6.16
  -2  -2   6   66.70    3.09
   1   2  -6  453.30   14.98
   1   2  -6  443.97   11.54
   1   2  -6  445.73   15.09
  -1  -2   6  432.71   11.51
  -1  -2   6  427.58   16.97
   0   2  -6   31.38    1.79
   0   2  -6   35.14    3.13
   0   2  -6   37.72    3.28
   0   2  -6   31.11    1.87
   0  -2   6   33.83    4.19
  -1   2  -6 1314.45   34.49
  -1   2  -6 1331.01   36.53
   1  -2   6 1288.32   34.47
   1  -2   6 1309.51   37.56
   1  -2   6 1279.25   38.37
  -2   2  -6 1301.53   36.07
  -2   2  -6 1279.01   35.30
   2  -2   6 1232.83   38.27
   2  -2   6 1290.00   36.96
  -3   2  -6  229.97    9.70
  -3   2  -6  218.19    9.97
   3  -2   6  226.18   10.43
   3  -2   6  219.27   11.85
  -4   2  -6  247.68   11.76
  -4   2  -6  269.86   10.97
   4  -2   6  264.31   11.73
   4  -2   6  273.19   14.25
  -5   2  -6   42.45    4.36
  -5   2  -6   42.82    5.42
   5  -2   6   44.83    5.03
   5  -2   6   38.75    6.76
  -6   2  -6  228.43   10.12
  -6   2  -6  222.22   12.96
   6  -2   6  239.83   11.92
   6  -2   6  210.91   15.09
  -7   2  -6   18.31    3.65
  -7   2  -6   10.52    4.88
   7  -2   6   28.53    8.28
   7  -2   6    7.62    4.97
  -8   2  -6   12.83    6.32
   8  -2   6   16.15    6.48
   8  -2   6   11.17    9.28
  -9   2  -6    1.67    8.71
   9  -2   6   -8.83    7.43
   9  -2   6   17.75   10.42
  10   1  -6   -3.12    9.19
 -10  -1   6   22.88    8.68
   9   1  -6   -0.48    6.61
  -9  -1   6   14.07   10.44
  -9  -1   6   -7.49    6.61
   8   1  -6   14.36    6.47
  -8  -1   6   16.41    5.47
  -8  -1   6    5.92    8.06
   7   1  -6   11.46    3.17
   7   1  -6   23.99    5.76
  -7  -1   6   14.72    6.93
  -7  -1   6   15.91    4.64
   6   1  -6    3.61    3.76
   6   1  -6    6.62    2.50
  -6  -1   6    8.64    4.24
  -6  -1   6    5.65    3.57
   5   1  -6   33.58    5.23
   5   1  -6   48.18    4.33
  -5  -1   6   45.89    6.50
  -5  -1   6   41.02    4.48
   4   1  -6   61.86    4.69
   4   1  -6   62.36    5.32
  -4  -1   6   63.71    5.95
  -4  -1   6   59.34    4.42
   3   1  -6   54.69    4.04
   3   1  -6   44.18    4.37
  -3  -1   6   39.92    3.27
  -3  -1   6   44.90    4.97
   2   1  -6  137.07    5.23
   2   1  -6  134.75    6.83
   2   1  -6  131.70    6.50
  -2  -1   6  123.71    5.01
  -2  -1   6  130.65    8.01
   1   1  -6  128.93    5.79
   1   1  -6  127.34    6.48
   1   1  -6  127.02    4.76
  -1  -1   6  121.07    4.77
  -1  -1   6  123.83    7.44
   0   1  -6   53.10    3.06
   0   1  -6   55.26    3.32
   0   1  -6   55.75    4.04
   0  -1   6   57.66    4.93
   0  -1   6   61.09    4.85
  -1   1  -6  411.72   13.52
  -1   1  -6  409.21   14.06
   1  -1   6  394.02   14.76
   1  -1   6  405.35   15.24
  -2   1  -6  853.19   25.80
  -2   1  -6  863.89   25.29
   2  -1   6  832.22   27.15
   2  -1   6  858.22   27.06
  -3   1  -6  132.72    6.71
  -3   1  -6  127.05    7.46
   3  -1   6  136.27    8.00
   3  -1   6  145.15    8.88
  -4   1  -6    7.90    2.11
  -4   1  -6   10.88    2.95
   4  -1   6    5.13    2.93
   4  -1   6   17.10    5.06
  -5   1  -6   38.03    4.01
  -5   1  -6   25.55    4.67
   5  -1   6   38.03    6.90
   5  -1   6   45.20    5.66
  -6   1  -6   16.69    4.58
  -6   1  -6   23.18    3.84
   6  -1   6   20.12    5.99
   6  -1   6   13.86    4.92
  -7   1  -6   31.12    5.30
  -7   1  -6   36.64    7.18
   7  -1   6   44.50    7.89
   7  -1   6   42.14   10.02
  -8   1  -6    4.39    6.65
   8  -1   6   -2.17    8.08
   8  -1   6   11.00    6.56
  -9   1  -6    5.31    8.80
   9  -1   6   26.91   12.14
   9  -1   6  -11.22    8.29
  10   0  -6   10.37    9.27
 -10   0   6   11.31    8.45
 -10   0   6   38.29   12.34
   9   0  -6   25.35    7.05
  -9   0   6   41.18    8.41
  -9   0   6   30.85   10.38
   8   0  -6   83.94    6.31
   8   0  -6   63.23    8.09
  -8   0   6   59.26   10.99
  -8   0   6   84.91    8.73
   7   0  -6   46.70    7.56
   7   0  -6   48.08    5.37
  -7   0   6   48.91    5.76
  -7   0   6   54.55    8.08
   6   0  -6   32.74    5.75
   6   0  -6   35.83    4.50
  -6   0   6   39.49    6.70
  -6   0   6   41.83    5.02
   5   0  -6  257.37   11.20
   5   0  -6  245.68   12.07
  -5   0   6  248.48   13.63
  -5   0   6  263.71   11.13
   4   0  -6  161.96    8.21
   4   0  -6  156.61    8.50
  -4   0   6  173.01    7.80
  -4   0   6  171.71   10.15
   3   0  -6  437.95   15.82
   3   0  -6  427.60   14.77
  -3   0   6  457.50   17.85
  -3   0   6  446.82   14.22
   2   0  -6  145.22    6.19
   2   0  -6  154.39    7.66
  -2   0   6  155.70    7.20
  -2   0   6  150.98    8.56
  -2   0   6  153.08    6.19
   1   0  -6  834.80   22.33
   1   0  -6  806.43   24.79
  -1   0   6  792.64   25.95
  -1   0   6  853.82   23.22
  -1   0   6  829.85   22.43
   0   0  -6 2156.27   56.82
   0   0  -6 2141.78   56.20
   0   0   6 2130.87   55.89
   0   0   6 2147.25   58.59
   0   0   6 2160.24   54.42
  -1   0  -6  660.10   21.08
  -1   0  -6  652.85   20.56
   1   0   6  684.36   20.91
   1   0   6  674.00   22.53
  -2   0  -6  630.09   19.36
  -2   0  -6  614.00   20.79
   2   0   6  607.76   20.86
   2   0   6  614.80   21.81
  -3   0  -6   16.09    2.70
  -3   0  -6   12.16    3.39
   3   0   6   18.16    3.79
   3   0   6   13.70    4.04
  -4   0  -6  301.96   14.18
  -4   0  -6  308.35   11.26
   4   0   6  306.68   14.30
   4   0   6  301.86   15.02
  -5   0  -6  192.87   11.63
  -5   0  -6  177.47    8.02
   5   0   6  179.53   11.63
   5   0   6  197.63   12.72
  -6   0  -6   41.18    7.77
  -6   0  -6   37.96    4.16
   6   0   6   39.99    8.05
   6   0   6   37.71    7.59
  -7   0  -6   52.28    9.05
   7   0   6   50.36    9.54
   7   0   6   53.81    9.85
  -8   0  -6   -4.09   12.13
   8   0   6   10.99    8.21
   8   0   6   27.61   11.12
   9   0   6   25.49   10.84
  11  -1  -6   -2.86    9.50
 -11   1   6   -0.89    8.88
  10  -1  -6    3.27    7.36
 -10   1   6   10.59    7.44
 -10   1   6  -12.50   10.13
   9  -1  -6    7.41    4.15
   9  -1  -6   -3.05    5.50
  -9   1   6    7.35    5.66
  -9   1   6    0.43    7.39
   8  -1  -6    0.73    6.29
   8  -1  -6    7.09    3.74
  -8   1   6    2.28    5.77
  -8   1   6    0.55    4.28
   7  -1  -6   18.86    5.21
   7  -1  -6   16.03    3.57
  -7   1   6   16.92    4.19
  -7   1   6   15.54    4.71
   6  -1  -6   57.72    5.55
   6  -1  -6   42.52    5.33
  -6   1   6   43.30    5.25
  -6   1   6   53.50    6.37
   5  -1  -6   38.03    4.43
  -5   1   6   26.11    3.50
  -5   1   6   25.96    4.86
   4  -1  -6  168.81    9.09
   4  -1  -6  165.38    8.12
  -4   1   6  181.00   10.04
  -4   1   6  178.44    8.19
   3  -1  -6   47.45    3.38
   3  -1  -6   53.65    4.64
  -3   1   6   37.82    3.56
  -3   1   6   39.19    4.67
   2  -1  -6  295.07    8.91
   2  -1  -6  298.32   11.93
  -2   1   6  279.14   12.30
  -2   1   6  291.25    9.07
  -2   1   6  281.97   10.53
   1  -1  -6  399.13   14.69
  -1   1   6  420.90   11.18
  -1   1   6  394.10   11.69
  -1   1   6  405.33   13.90
  -1   1   6  418.16   15.77
   0  -1  -6  713.83   20.49
   0  -1  -6  715.40   22.65
   0  -1  -6  747.80   22.45
   0   1   6  710.12   23.82
   0   1   6  700.86   20.06
  -1  -1  -6  416.23   14.56
  -1  -1  -6  444.79   16.22
   1   1   6  431.03   17.13
   1   1   6  439.33   14.77
  -2  -1  -6   10.59    2.60
   2   1   6   10.31    2.78
  -3  -1  -6   96.58    8.55
  -3  -1  -6  110.76    5.83
   3   1   6  105.27    7.88
   3   1   6  100.96    7.54
  -4  -1  -6   28.53    5.18
  -4  -1  -6   34.63    3.72
   4   1   6   29.76    5.73
   4   1   6   27.41    5.84
  -5  -1  -6   64.32    4.45
  -5  -1  -6   71.82    8.00
   5   1   6   69.92    8.08
   5   1   6   57.47    8.30
  -6  -1  -6   23.81    6.21
   6   1   6   39.10    8.02
   6   1   6   21.57    7.01
  -7  -1  -6    9.63    6.27
   7   1   6   -5.69    7.96
  -8  -1  -6    6.33    8.40
   8   1   6   22.80   10.88
   8   1   6   -0.98    9.50
  11  -2  -6   -3.82    9.35
 -11   2   6    5.14   15.61
  10  -2  -6   23.75    8.45
  10  -2  -6   16.84    5.57
 -10   2   6   10.13    8.50
 -10   2   6   28.89    7.49
   9  -2  -6   24.95    4.94
   9  -2  -6   24.47    7.35
  -9   2   6   24.30    6.10
  -9   2   6   32.52    7.44
   8  -2  -6   -0.52    4.37
  -8   2   6   -6.96    5.02
  -8   2   6    9.63    3.75
   7  -2  -6   83.72    7.50
   7  -2  -6   94.28    7.53
  -7   2   6   75.33    7.12
  -7   2   6   85.75    8.00
   6  -2  -6   84.17    6.98
   6  -2  -6   80.85    6.42
  -6   2   6   81.64    6.94
  -6   2   6   93.36    6.91
   5  -2  -6  202.03   10.71
   5  -2  -6  203.70    9.77
  -5   2   6  201.55    9.83
  -5   2   6  194.74   10.58
   4  -2  -6  449.03   17.25
   4  -2  -6  449.72   14.84
  -4   2   6  421.06   15.59
  -4   2   6  448.80   17.14
   3  -2  -6   86.20    4.01
   3  -2  -6   84.54    5.96
  -3   2   6   82.17    5.86
  -3   2   6   83.92    4.50
  -3   2   6   78.81    5.07
   2  -2  -6 1358.69   38.41
  -2   2   6 1253.03   38.26
  -2   2   6 1289.60   36.58
   1  -2  -6  402.51   14.65
  -1   2   6  366.05   15.23
  -1   2   6  378.36   13.98
   0  -2  -6  695.20   23.76
   0  -2  -6  731.41   20.50
   0  -2  -6  710.18   22.72
   0   2   6  738.73   25.12
   0   2   6  732.72   19.78
  -1  -2  -6  242.51   10.16
  -1  -2  -6  250.66   12.02
   1   2   6  249.87   12.44
   1   2   6  254.23    9.89
  -2  -2  -6  106.64    5.89
   2   2   6  104.93    6.94
  -3  -2  -6  345.60   11.97
  -3  -2  -6  331.79   15.89
   3   2   6  321.24   16.22
   3   2   6  322.89   14.40
  -4  -2  -6   44.67    6.45
  -4  -2  -6   45.29    4.13
   4   2   6   52.43    6.79
   4   2   6   52.07    9.06
  -5  -2  -6   98.74    9.69
   5   2   6   84.37    9.88
   5   2   6  110.77    9.78
  -6  -2  -6    2.74    5.54
   6   2   6   -1.02    7.34
   6   2   6   13.08    7.50
  -7  -2  -6   36.86    8.88
   7   2   6   27.82   10.28
   7   2   6   48.13   11.85
  11  -3  -6  -15.40    9.30
 -11   3   6    3.38    8.99
  10  -3  -6    7.00    6.51
  10  -3  -6    4.43    5.34
 -10   3   6   12.12    7.22
   9  -3  -6    8.47    6.19
   9  -3  -6    0.34    4.87
  -9   3   6    0.73    4.40
  -9   3   6    9.19    5.27
   8  -3  -6   18.15    5.89
   8  -3  -6   13.23    4.55
  -8   3   6   12.63    4.94
   7  -3  -6   27.41    4.54
   7  -3  -6   26.95    5.37
  -7   3   6   15.78    3.64
  -7   3   6   21.00    4.65
   6  -3  -6   65.43    5.90
   6  -3  -6   72.62    6.38
  -6   3   6   84.75    6.71
   5  -3  -6   29.43    3.91
   5  -3  -6   21.13    4.15
  -5   3   6   22.95    3.51
  -5   3   6   21.98    4.05
   4  -3  -6   78.60    4.66
   4  -3  -6   79.19    6.29
  -4   3   6   73.98    5.99
  -4   3   6   82.80    5.98
   3  -3  -6  316.84   13.93
   3  -3  -6  330.89    9.22
  -3   3   6  325.82    9.76
  -3   3   6  324.17   13.60
  -3   3   6  306.56   12.67
   2  -3  -6  325.26   13.95
  -2   3   6  334.77   14.31
  -2   3   6  331.94   13.21
   1  -3  -6  311.37   12.98
  -1   3   6  293.84   12.63
  -1   3   6  301.07   13.95
   0  -3  -6   40.06    3.76
   0  -3  -6   33.54    4.44
   0  -3  -6   26.99    3.77
   0   3   6   34.22    2.63
   0   3   6   26.07    4.76
  -1  -3  -6   55.90    4.50
   1   3   6   60.36    4.47
  -2  -3  -6   71.11    5.13
  -2  -3  -6   73.86    6.89
   2   3   6   71.38    7.35
   2   3   6   79.84    6.18
  -3  -3  -6   47.34    4.10
  -3  -3  -6   45.11    5.81
   3   3   6   57.69    6.46
   3   3   6   42.83    6.57
  -4  -3  -6   60.56    6.35
  -4  -3  -6   57.54    7.16
   4   3   6   54.32    7.85
   4   3   6   49.15    9.04
  -5  -3  -6   -5.47    6.05
   5   3   6    8.30    6.81
   5   3   6   -1.56    6.88
  -6  -3  -6   17.75    7.61
   6   3   6   32.47    9.77
   6   3   6   25.20    8.77
  -7  -3  -6  -11.02    8.01
   7   3   6  -11.54   11.00
   7   3   6   10.08    9.36
  11  -4  -6    2.28    6.87
  11  -4  -6   19.88    9.28
 -11   4   6   12.61    7.93
  10  -4  -6   -2.60    5.79
  10  -4  -6    4.30    7.27
 -10   4   6    6.08    6.27
   9  -4  -6    0.87    5.29
   9  -4  -6    5.61    4.42
  -9   4   6    0.68    5.05
  -9   4   6    3.73    5.16
   8  -4  -6    4.87    4.70
   8  -4  -6    8.58    5.19
  -8   4   6    1.57    4.30
  -8   4   6    8.63    4.85
   7  -4  -6   26.45    5.44
  -7   4   6   35.42    6.59
  -7   4   6   26.01    5.42
   6  -4  -6  149.48    9.90
   6  -4  -6  166.77    9.06
  -6   4   6  159.82    9.14
   5  -4  -6   22.13    3.84
  -5   4   6   21.07    4.36
  -5   4   6   22.51    4.05
   4  -4  -6  159.42    9.66
   4  -4  -6  169.73    6.72
  -4   4   6  152.51    7.17
  -4   4   6  152.50    8.53
  -4   4   6  159.80    9.00
   3  -4  -6   99.63    7.48
  -3   4   6   96.14    6.52
  -3   4   6  102.28    7.06
   2  -4  -6  372.94   15.47
  -2   4   6  356.88   15.02
  -2   4   6  373.02   15.85
   1  -4  -6  466.43   12.84
   1  -4  -6  462.63   17.54
  -1   4   6  462.82   12.29
  -1   4   6  452.12   18.84
  -1   4   6  467.61   17.99
   0  -4  -6    0.11    3.16
   0  -4  -6    6.79    2.62
   0   4   6    3.15    3.46
   0   4   6    8.76    2.15
  -1  -4  -6  318.45   12.65
  -1  -4  -6  327.16   15.60
   1   4   6  311.18   11.83
   1   4   6  302.03   15.69
  -2  -4  -6   23.81    3.68
  -2  -4  -6   29.23    5.13
   2   4   6   27.94    6.10
   2   4   6   23.75    4.68
  -3  -4  -6   91.32    9.86
  -3  -4  -6   96.63    5.93
   3   4   6  101.89   10.14
   3   4   6   99.15    8.91
  -4  -4  -6   28.75    7.52
   4   4   6   26.42    7.64
   4   4   6   38.39    7.45
  -5  -4  -6    5.04    6.01
   5   4   6   28.58    7.84
   5   4   6   17.53    7.62
  -6  -4  -6   47.63   10.46
   6   4   6   27.58   10.05
   6   4   6   22.18   11.54
  11  -5  -6    3.01    7.18
  11  -5  -6   -0.94    8.24
 -11   5   6    7.77    9.12
  10  -5  -6   -6.85    5.87
  10  -5  -6   15.62    7.96
 -10   5   6   -0.29    6.62
   9  -5  -6    4.78    5.66
   9  -5  -6    9.46    6.31
  -9   5   6   13.40    4.71
  -9   5   6   15.81    6.17
   8  -5  -6   10.10    4.86
   8  -5  -6    7.50    5.94
  -8   5   6    4.11    3.96
  -8   5   6   10.33    5.31
   7  -5  -6   18.67    5.03
   7  -5  -6   16.29    5.30
  -7   5   6   12.58    3.61
  -7   5   6    9.00    3.86
   6  -5  -6   19.30    4.78
   6  -5  -6   10.88    3.97
  -6   5   6   17.75    4.02
  -6   5   6   13.53    3.61
   5  -5  -6   97.42    8.39
   5  -5  -6   93.97    6.40
  -5   5   6  109.33    7.56
  -5   5   6  103.44    7.39
   4  -5  -6  158.18   10.74
   4  -5  -6  157.03    6.59
   4  -5  -6  156.56    5.99
  -4   5   6  161.63    9.23
  -4   5   6  159.40    9.35
  -3   5   6   81.60    6.42
  -3   5   6   84.61    6.91
   2  -5  -6   31.25    4.58
  -2   5   6   40.44    5.61
  -2   5   6   33.33    4.77
   1  -5  -6   64.97    5.76
   1  -5  -6   57.47    4.68
  -1   5   6   55.94    6.13
  -1   5   6   50.93    5.35
  -1   5   6   60.51    3.22
   0  -5  -6  192.73    9.99
   0  -5  -6  171.81   11.43
   0   5   6  174.84   12.17
   0   5   6  188.45    7.86
  -1  -5  -6   37.28    7.30
  -1  -5  -6   20.00    3.70
   1   5   6   17.99    6.48
   1   5   6   25.06    4.27
  -2  -5  -6   66.21    5.75
  -2  -5  -6   81.28    8.32
   2   5   6   58.44    6.39
   2   5   6   56.83    9.54
  -3  -5  -6    3.55    5.68
   3   5   6   16.09    7.04
  -4  -5  -6    9.50    6.53
   4   5   6   14.63    7.99
  -5  -5  -6    8.56    8.57
   5   5   6   -6.04    9.08
   5   5   6  -16.25    8.82
  11  -6  -6   -4.67    6.38
  11  -6  -6   12.88    9.16
 -11   6   6    2.48   10.16
  10  -6  -6    2.54    8.24
  10  -6  -6   17.34    7.43
 -10   6   6   -4.59    7.09
   9  -6  -6    1.26    5.93
   9  -6  -6   -1.60    8.23
  -9   6   6   -1.66    5.71
   8  -6  -6   22.45    5.92
   8  -6  -6   30.82    7.48
  -8   6   6   33.05    6.61
  -8   6   6   37.54    5.66
   7  -6  -6   13.91    4.91
   7  -6  -6   26.02    6.51
  -7   6   6   16.13    4.94
  -7   6   6   18.66    4.16
   6  -6  -6   21.30    5.26
   6  -6  -6   13.75    4.70
  -6   6   6   22.02    4.83
  -6   6   6   23.11    4.43
   5  -6  -6   17.28    3.99
   5  -6  -6   21.14    6.26
  -5   6   6   15.51    5.21
   4  -6  -6  119.10    5.91
   4  -6  -6  110.87    5.28
   4  -6  -6  115.02    9.23
  -4   6   6  112.92    8.30
  -4   6   6  116.42    8.06
   3  -6  -6  200.25    6.68
   3  -6  -6  209.74   12.51
  -3   6   6  201.99   11.50
   2  -6  -6   46.64    5.84
   2  -6  -6   30.06    3.84
  -2   6   6   29.87    4.69
  -2   6   6   37.85    7.08
   1  -6  -6  153.57   11.38
  -1   6   6  158.99   10.51
  -1   6   6  171.50   11.74
  -1   6   6  157.70    6.55
   0  -6  -6   16.47    4.98
   0  -6  -6   18.61    4.13
   0   6   6   23.20    6.47
   0   6   6   24.01    3.97
  -1  -6  -6   35.31    5.42
  -1  -6  -6   32.49    6.99
   1   6   6   35.02    5.61
   1   6   6   48.43    8.62
  -2  -6  -6   92.37    9.50
   2   6   6   76.31   12.29
   2   6   6   76.84   10.89
  -3  -6  -6    2.76    6.50
   3   6   6    9.24    6.29
   3   6   6    5.13    9.16
  -4  -6  -6   21.10    8.76
   4   6   6   38.50   10.65
   4   6   6   12.08    7.68
  11  -7  -6    5.19    8.75
  11  -7  -6   18.54   11.88
 -11   7   6    8.52    8.48
  10  -7  -6  -11.88    8.30
  10  -7  -6    6.41    6.81
 -10   7   6   -0.22    6.59
   9  -7  -6    5.97    6.79
   9  -7  -6   -9.59    7.58
  -9   7   6   10.38    5.63
   8  -7  -6    4.43    4.79
  -8   7   6    2.97    4.95
  -8   7   6    0.17    4.25
   7  -7  -6   18.31    5.34
   7  -7  -6   30.59    6.28
  -7   7   6   32.52    5.00
  -7   7   6   19.34    6.00
   6  -7  -6   35.83    6.74
   6  -7  -6   55.02    6.86
  -6   7   6   44.13    6.09
  -6   7   6   56.76    6.48
   5  -7  -6   31.37    5.36
  -5   7   6   24.28    5.28
  -5   7   6   23.61    5.09
   4  -7  -6   25.41    3.94
   4  -7  -6   16.14    4.47
  -4   7   6   17.24    5.17
  -4   7   6   29.94    5.80
  -3   7   6   17.23    5.09
  -3   7   6    9.28    3.80
   2  -7  -6  120.44    9.31
   2  -7  -6  146.73    7.67
  -2   7   6  130.20   10.50
  -2   7   6  135.50    9.96
   1  -7  -6   24.79    5.26
  -1   7   6   23.86    4.32
  -1   7   6   39.38    7.40
   0  -7  -6   42.01    7.32
   0  -7  -6   42.03    6.94
   0   7   6   40.11    8.35
   0   7   6   36.69    5.44
  -1  -7  -6   12.12    4.22
  -1  -7  -6   25.40    6.40
   1   7   6   -0.49    6.67
  -2  -7  -6   25.41    7.73
   2   7   6   16.39    8.51
  -3  -7  -6    2.16    7.34
   3   7   6   23.34   10.96
  11  -8  -6   -5.61    8.26
  11  -8  -6   -4.90   11.62
 -11   8   6    2.55    8.15
  10  -8  -6    7.62    7.98
  10  -8  -6   15.72   10.26
 -10   8   6    2.22    7.71
   9  -8  -6    1.78    7.04
   9  -8  -6   15.12    9.41
  -9   8   6    4.03    5.83
   8  -8  -6    4.76    5.61
  -8   8   6    1.07    5.11
   7  -8  -6    9.30    6.40
   7  -8  -6    3.94    5.77
  -7   8   6   -3.31    5.17
  -7   8   6   -3.51    4.34
   6  -8  -6   16.27    5.84
   6  -8  -6   21.56    6.25
  -6   8   6   24.53    5.22
  -6   8   6   26.31    5.73
   5  -8  -6   70.77    7.17
   5  -8  -6   60.86    9.47
  -5   8   6   60.56    7.32
  -5   8   6   68.08    8.40
   4  -8  -6   34.47    6.78
  -4   8   6   47.10    6.64
  -4   8   6   41.06    7.83
   3  -8  -6   24.53    5.97
  -3   8   6   32.18    5.69
  -3   8   6   30.71    7.54
  -2   8   6    0.59    6.31
  -2   8   6    4.39    5.22
   1  -8  -6   -0.08    5.33
   1  -8  -6   11.84    5.31
  -1   8   6   15.57    6.33
   0  -8  -6   44.15    8.91
   0  -8  -6   23.12    6.16
   0   8   6   39.24    9.28
  -1  -8  -6   10.62    7.96
   1   8   6   23.04    9.90
  -2  -8  -6   11.71    7.49
   2   8   6   -5.19   10.93
  11  -9  -6  -11.09    8.08
  11  -9  -6   -9.90   11.05
 -11   9   6   -1.39    9.52
  10  -9  -6   -0.20    8.19
  10  -9  -6  -14.87   10.62
 -10   9   6  -10.96    8.01
   9  -9  -6    7.94    8.14
   9  -9  -6   -7.09    9.24
  -9   9   6    4.13    7.33
  -8   9   6   27.01    7.51
   7  -9  -6   13.09    7.23
  -7   9   6    6.71    6.11
  -7   9   6   10.18    5.64
   6  -9  -6   -6.41    5.35
  -6   9   6    4.43    6.10
  -6   9   6    8.04    5.06
   5  -9  -6    5.29    6.68
  -5   9   6   -4.26    5.89
  -5   9   6    6.27    5.26
   4  -9  -6   40.61    8.79
  -4   9   6   30.07    7.52
  -4   9   6   40.80    9.32
  -3   9   6   45.16    9.39
  -3   9   6   64.67    8.93
   2  -9  -6   14.25    6.12
   2  -9  -6    0.43    6.32
  -2   9   6   14.46    8.71
   1  -9  -6   -2.97    5.79
   1  -9  -6   -6.50    6.10
  -1   9   6   -1.45    8.72
   0  -9  -6   12.68    9.75
   0   9   6    1.30   20.77
  -1  -9  -6    5.17    8.72
   1   9   6   -3.94   11.68
  10 -10  -6    7.52    9.96
 -10  10   6   -7.85    9.78
   9 -10  -6   -0.55    9.15
  -9  10   6  -11.19    8.15
   8 -10  -6   -4.89    7.79
  -8  10   6    5.47    9.20
   7 -10  -6   -0.17    7.60
  -7  10   6   15.67    7.17
   6 -10  -6   16.80    8.11
  -6  10   6   22.19    8.08
  -6  10   6   20.78    7.39
   5 -10  -6   22.80    7.64
  -5  10   6    8.96    6.08
   4 -10  -6    9.62    6.90
  -4  10   6   13.00    6.03
   3 -10  -6   -6.85    5.69
  -3  10   6   -9.14    6.42
  -3  10   6   13.32    8.44
   2 -10  -6   26.11    9.62
   2 -10  -6    5.19    8.55
  -2  10   6   12.56   10.13
   1 -10  -6    4.25    9.50
   1 -10  -6    6.18   11.90
  -1  10   6   24.35   11.60
   9 -11  -6   11.20    9.05
  -9  11   6    3.90   10.01
   8 -11  -6   -8.79    7.61
  -8  11   6   17.67    9.65
   7 -11  -6   -2.03    8.49
  -7  11   6   -2.16    8.25
   6 -11  -6   18.23   14.62
  -6  11   6   36.15    9.75
  -6  11   6    0.87    9.11
   5 -11  -6   12.37    8.18
  -5  11   6   19.59    9.91
  -5  11   6    5.03    7.84
   4 -11  -6   18.89    9.11
  -4  11   6   -1.69    9.98
  -4  11   6   -2.18    7.16
   3 -11  -6    6.51    8.18
   3 -11  -6   -3.36    8.93
  -3  11   6    2.30   10.81
  -2  13  -7   13.09    7.04
   2 -13   7   13.75   11.15
   2 -13   7   21.08   15.45
  -3  13  -7   -3.32    7.07
   3 -13   7   -9.40   12.79
   3 -13   7    0.43    9.58
  -4  13  -7    5.94    6.70
   4 -13   7    1.81   12.08
  -5  13  -7   -4.34    7.34
   5 -13   7   12.32   13.76
   6 -13   7   32.11   13.48
  -7  13  -7    4.51    7.35
   7 -13   7   -3.82   13.44
   0  12  -7   -0.01    6.94
   0  12  -7   11.67    9.77
  -1  12  -7   -1.59    6.74
  -1  12  -7    5.07   16.28
   1 -12   7   -0.33    9.99
  -2  12  -7   13.33   11.05
  -2  12  -7   12.85    7.02
   2 -12   7   -9.56   11.14
   2 -12   7   -0.66    8.95
  -3  12  -7   11.29    6.11
   3 -12   7   -4.32    7.88
   3 -12   7    8.87   11.82
  -4  12  -7   12.98    6.34
   4 -12   7   39.00   14.68
   4 -12   7    0.18    7.89
  -5  12  -7   10.34    6.09
   5 -12   7   15.06   11.54
  -6  12  -7    7.34    8.16
  -6  12  -7   -1.84    6.40
   6 -12   7   14.79   11.18
  -7  12  -7    1.09    6.55
  -7  12  -7   -5.52    6.79
   7 -12   7   -0.92   11.93
  -8  12  -7   -4.82    6.93
  -8  12  -7    2.75    7.91
   8 -12   7    6.76   12.43
  -2 -11   7   -1.52   10.02
  -1 -11   7    8.56   10.31
   0  11  -7   10.52    7.50
   0  11  -7    3.90    5.15
   0 -11   7    2.29    9.46
  -1  11  -7   12.37    5.19
  -1  11  -7    0.32    7.86
   1 -11   7    4.88    8.48
  -2  11  -7   -0.48    5.04
  -2  11  -7    4.43    9.02
   2 -11   7    0.69    7.13
  -3  11  -7    4.58    5.05
  -3  11  -7    3.51    4.69
   3 -11   7   -2.95    6.87
   3 -11   7   12.48    9.01
  -4  11  -7   28.37    8.03
   4 -11   7   -2.16    9.91
   4 -11   7   15.39    6.95
  -5  11  -7   12.88    5.20
  -5  11  -7   -0.55    5.42
   5 -11   7   14.67    8.56
  -6  11  -7   -2.44    5.20
  -6  11  -7   -0.92    5.39
   6 -11   7   17.11    9.80
  -7  11  -7    9.35    5.76
  -7  11  -7    6.71    6.25
   7 -11   7   -3.20   10.97
  -8  11  -7    9.60    7.35
   8 -11   7   61.36   24.85
  -9  11  -7   10.04    8.46
  -9  11  -7   -5.10    7.54
   9 -11   7    7.54   11.08
   3  10  -7   15.87    9.42
  -3 -10   7   -4.25   11.76
   2  10  -7    5.91    8.71
  -2 -10   7   -2.35    9.25
   1  10  -7    3.76    7.49
   1  10  -7   -2.10    4.61
  -1 -10   7    2.69    8.90
   0  10  -7    2.00    4.55
   0  10  -7    5.19    6.56
   0 -10   7   18.36    8.29
   0 -10   7   -2.59    5.14
  -1  10  -7   16.18    8.14
  -1  10  -7   12.87    4.68
   1 -10   7   15.03    6.55
   1 -10   7   12.38    4.58
  -2  10  -7    5.94    3.67
  -2  10  -7   -2.42    7.07
  -2  10  -7    0.51    4.33
   2 -10   7    3.89    6.06
  -3  10  -7    9.75    4.81
  -3  10  -7    7.34    4.14
   3 -10   7   11.55    9.46
   3 -10   7   14.83    6.51
  -4  10  -7   12.51    4.19
   4 -10   7    6.64    7.97
  -5  10  -7   -0.23    5.59
  -5  10  -7   12.17    5.03
   5 -10   7   17.89    7.82
   5 -10   7   10.01    5.05
  -6  10  -7    9.78    4.84
  -6  10  -7    7.69    4.95
   6 -10   7   11.45    8.68
  -7  10  -7    5.14    5.13
  -7  10  -7   10.94    5.69
   7 -10   7    3.53    7.93
  -8  10  -7    9.10    5.57
  -8  10  -7    4.52    6.57
   8 -10   7   -1.82    9.49
  -9  10  -7    3.87   12.03
  -9  10  -7  -13.45    7.63
   9 -10   7   17.07   10.98
 -10  10  -7    3.60    8.62
   4   9  -7   13.77   10.22
  -4  -9   7    2.41   12.47
   3   9  -7   20.11    8.44
  -3  -9   7    9.12    9.33
   2   9  -7   10.86    4.02
   2   9  -7   15.13    6.78
  -2  -9   7   14.57    4.62
  -2  -9   7   14.88    7.25
   1   9  -7   39.30    8.52
   1   9  -7   41.57    5.89
  -1  -9   7   35.78    5.81
   0   9  -7    1.37    3.64
   0   9  -7    4.73    5.15
   0  -9   7    2.29    6.37
   0  -9   7    4.10    3.74
  -1   9  -7   13.30    6.06
  -1   9  -7    6.81    4.08
   1  -9   7    1.80    5.42
   1  -9   7   10.00    3.69
  -2   9  -7   31.62    4.64
  -2   9  -7   43.75    7.21
  -2   9  -7   32.45    5.37
  -3   9  -7   15.65    3.44
  -3   9  -7   11.57    3.77
   3  -9   7   23.20    7.11
   3  -9   7   20.77    5.21
  -4   9  -7   10.17    4.66
   4  -9   7   17.95    8.48
   4  -9   7   24.29    4.91
  -5   9  -7    5.33    3.58
  -5   9  -7    5.91    3.86
   5  -9   7   15.18    4.31
   5  -9   7    9.78    6.72
  -6   9  -7    7.26    4.42
  -6   9  -7    5.36    4.00
   6  -9   7    5.99    7.42
  -7   9  -7   15.73    5.45
  -7   9  -7   25.07    6.66
  -8   9  -7    2.76    5.15
  -8   9  -7   -0.29    5.91
   8  -9   7   -3.25    9.24
  -9   9  -7    4.88    6.89
  -9   9  -7   -7.19    7.04
 -10   9  -7   10.78    9.44
  10  -9   7   21.17   13.60
   5   8  -7    9.64   10.82
  -5  -8   7    7.56   12.76
   4   8  -7   11.07    7.84
  -4  -8   7    6.27    9.89
   3   8  -7    6.20    3.81
   3   8  -7   -1.84    5.89
  -3  -8   7   -0.23    4.43
  -3  -8   7   20.20    8.53
   2   8  -7   16.51    6.17
   2   8  -7    7.09    3.89
  -2  -8   7   10.23    6.32
  -2  -8   7    5.14    3.62
   1   8  -7   48.39    5.86
   1   8  -7   51.27    8.03
  -1  -8   7   74.93    9.24
  -1  -8   7   57.97    5.48
   0   8  -7   -2.58    3.12
   0   8  -7    1.34    4.38
   0  -8   7    5.21    2.83
  -1   8  -7   20.02    5.04
  -1   8  -7   18.87    4.05
   1  -8   7   21.70    3.23
   1  -8   7   13.73    5.62
  -2   8  -7   14.91    3.32
  -2   8  -7   20.77    5.35
  -2   8  -7   17.52    3.06
   2  -8   7   15.83    4.60
   2  -8   7   11.90    6.45
  -3   8  -7   33.92    4.02
  -3   8  -7   32.96    5.31
   3  -8   7   32.54    9.28
   3  -8   7   43.87    6.63
  -4   8  -7   45.48    5.75
  -4   8  -7   54.74    4.86
   4  -8   7   41.60    6.34
   4  -8   7   50.70    8.07
  -5   8  -7    3.77    3.45
  -5   8  -7    2.88    3.34
   5  -8   7    3.04    5.93
   5  -8   7    1.93    3.24
  -6   8  -7    3.21    3.72
  -6   8  -7   10.09    4.25
   6  -8   7   -3.18    6.09
  -7   8  -7    4.98    4.60
  -7   8  -7    7.15    4.06
   7  -8   7    3.31    8.14
  -8   8  -7   16.64    5.83
  -8   8  -7   15.52    6.06
   8  -8   7   16.51    9.70
  -9   8  -7    3.19    6.89
  -9   8  -7   14.52    7.43
   9  -8   7   24.38   11.75
 -10   8  -7   10.63    8.41
 -10   8  -7   14.00    6.57
  10  -8   7    7.56   12.58
   6   7  -7    3.60   10.82
  -6  -7   7   14.67    7.33
  -6  -7   7   26.58   13.15
   5   7  -7   16.53    9.63
  -5  -7   7   -1.37    9.97
  -5  -7   7    4.29    5.86
   4   7  -7    7.14    7.19
  -4  -7   7   10.94    8.33
   3   7  -7   36.90    7.96
   3   7  -7   36.02    4.78
  -3  -7   7   32.29    8.52
  -3  -7   7   34.24    5.10
   2   7  -7   12.26    4.83
   2   7  -7    9.90    3.15
  -2  -7   7    9.05    3.09
  -2  -7   7   18.27    7.12
   1   7  -7   14.00    2.81
   1   7  -7   20.88    5.23
  -1  -7   7    9.78    2.69
  -1  -7   7    5.63    4.49
   0   7  -7   72.24    6.75
   0   7  -7   75.25    9.60
   0  -7   7   75.14    4.44
   0  -7   7   70.20    8.01
  -1   7  -7   47.18    3.28
  -1   7  -7   41.67    5.00
  -1   7  -7   49.25    5.66
   1  -7   7   43.03    3.53
   1  -7   7   55.22    7.07
  -2   7  -7  128.73    5.80
  -2   7  -7  106.96    7.30
   2  -7   7  134.32   11.50
   2  -7   7  123.64    8.98
  -3   7  -7    8.79    2.45
  -3   7  -7    5.57    2.86
   3  -7   7   18.43    6.58
   3  -7   7    8.62    3.79
  -4   7  -7   11.67    3.30
  -4   7  -7   19.30    3.47
   4  -7   7   22.19    4.63
   4  -7   7   13.55    5.84
  -5   7  -7   52.89    5.91
  -5   7  -7   65.97    5.32
   5  -7   7   58.40    8.33
   5  -7   7   54.58    4.95
  -6   7  -7   62.12    6.69
  -6   7  -7   47.74    5.91
   6  -7   7   71.43   10.41
   6  -7   7   41.82    4.39
  -7   7  -7   10.69    4.03
  -7   7  -7   16.43    5.33
   7  -7   7   19.46    7.87
  -8   7  -7   -1.86    5.89
  -8   7  -7   16.98    5.64
   8  -7   7   -4.09    8.10
  -9   7  -7    9.22    6.78
  -9   7  -7    1.05    6.21
   9  -7   7   12.44   10.46
 -10   7  -7   -0.13    6.82
  10  -7   7   30.44   12.86
   7   6  -7   19.60   10.92
  -7  -6   7   22.12    7.85
  -7  -6   7   27.09   15.46
   6   6  -7   16.57    9.20
  -6  -6   7    5.47    6.46
   5   6  -7   24.75    6.88
  -5  -6   7   26.49    9.97
  -5  -6   7   19.35    5.65
   4   6  -7   14.86    5.34
   4   6  -7   26.16    4.42
  -4  -6   7   18.67    4.27
  -4  -6   7   18.01    6.88
   3   6  -7  120.97    9.79
   3   6  -7  120.95    7.23
  -3  -6   7  138.86    7.45
  -3  -6   7  136.58   12.44
   2   6  -7   18.67    3.50
   2   6  -7   18.08    5.13
  -2  -6   7   14.06    4.99
   1   6  -7   21.29    5.00
  -1  -6   7   23.58    5.93
  -1  -6   7   21.12    2.90
  -1  -6   7   25.51    2.78
   0   6  -7   -0.32    2.21
   0   6  -7    0.58    2.84
   0  -6   7    3.23    1.36
   0  -6   7   -2.06    3.69
   0  -6   7    3.41    1.49
  -1   6  -7   75.20    3.28
  -1   6  -7   71.13    5.46
   1  -6   7   73.38    7.20
   1  -6   7   69.70    3.48
  -2   6  -7  281.66    9.43
  -2   6  -7  271.39   14.65
   2  -6   7  276.66   13.26
   2  -6   7  293.13   10.42
  -3   6  -7   37.61    4.36
  -3   6  -7   32.51    3.43
   3  -6   7   35.61    6.43
   3  -6   7   29.89    4.49
  -4   6  -7   37.65    4.53
  -4   6  -7   32.77    4.18
   4  -6   7   32.36    4.23
   4  -6   7   41.91    8.70
  -5   6  -7   -0.84    2.85
  -5   6  -7    4.95    3.18
   5  -6   7    9.13    5.34
   5  -6   7    8.29    2.63
  -6   6  -7   35.57    5.80
  -6   6  -7   40.77    5.74
   6  -6   7   44.95    4.32
   6  -6   7   51.02    8.57
  -7   6  -7   55.15    6.65
  -7   6  -7   51.88    6.92
   7  -6   7   52.88    4.95
   7  -6   7   58.53    9.56
  -8   6  -7    3.37    4.60
  -8   6  -7    4.72    5.88
   8  -6   7    7.80    8.30
  -9   6  -7    5.84    7.05
  -9   6  -7   -2.25    5.62
   9  -6   7   -5.95    9.12
 -10   6  -7    5.82    8.89
 -10   6  -7   -3.38    6.90
  10  -6   7   31.21   15.09
   8   5  -7    9.94   10.91
  -8  -5   7   -6.66    8.32
   7   5  -7    9.57    8.36
  -7  -5   7    4.23    6.27
  -7  -5   7   14.56   12.81
   6   5  -7   -0.21    6.81
  -6  -5   7    1.54    5.32
  -6  -5   7   19.06    8.44
   5   5  -7    1.84    2.87
   5   5  -7    2.59    4.93
  -5  -5   7   -6.45    3.87
  -5  -5   7    9.37    8.27
   4   5  -7    1.51    2.48
   4   5  -7    3.80    4.30
  -4  -5   7    4.93    3.18
  -4  -5   7    5.14    5.96
   3   5  -7   11.92    4.12
   3   5  -7   10.56    2.57
  -3  -5   7    4.51    4.76
   2   5  -7   92.35    5.99
   2   5  -7   99.18    7.35
  -2  -5   7   86.40    8.56
  -2  -5   7   85.88    4.57
  -2  -5   7   84.11    4.40
   1   5  -7   99.22    7.07
   1   5  -7  106.50    6.60
  -1  -5   7   97.08    3.72
  -1  -5   7   92.94    8.72
  -1  -5   7  104.07    3.68
   0   5  -7  309.05   13.75
   0   5  -7  312.84   12.73
   0  -5   7  305.99   15.13
  -1   5  -7   22.97    1.71
  -1   5  -7   24.33    3.49
  -1   5  -7   31.24    4.44
   1  -5   7   33.19    4.57
   1  -5   7   32.28    2.03
  -2   5  -7   62.97    5.15
  -2   5  -7   58.89    3.32
   2  -5   7   45.90    3.48
   2  -5   7   53.56    6.98
   2  -5   7   53.24    5.43
  -3   5  -7  157.66    8.68
  -3   5  -7  145.42    6.94
   3  -5   7  149.53    8.20
   3  -5   7  138.31   10.47
  -4   5  -7  169.75    8.08
   4  -5   7  150.11   11.68
   4  -5   7  155.39    8.14
  -5   5  -7   38.96    4.82
  -5   5  -7   34.64    4.94
   5  -5   7   40.86    4.47
   5  -5   7   53.58    8.14
  -6   5  -7    5.34    3.91
  -6   5  -7    6.17    3.49
   6  -5   7    6.54    6.06
   6  -5   7    8.83    3.16
  -7   5  -7   20.70    5.52
  -7   5  -7   20.19    4.20
   7  -5   7   17.88    7.37
   7  -5   7   26.02    4.25
  -8   5  -7   43.46    7.90
   8  -5   7   38.92    8.96
  -9   5  -7    7.71    6.84
  -9   5  -7   -1.39    5.23
   9  -5   7  -13.96    8.76
 -10   5  -7  -17.26    8.96
  10  -5   7   23.26   13.37
   8   4  -7   14.15   12.17
  -8  -4   7   11.18    7.77
  -8  -4   7   18.99   15.02
   7   4  -7   11.52    7.14
  -7  -4   7   42.36   11.72
  -7  -4   7   18.36    6.12
   6   4  -7   18.59    6.38
  -6  -4   7   21.73    9.66
  -6  -4   7   23.12    4.78
   5   4  -7  121.31    6.67
   5   4  -7  127.55    9.98
  -5  -4   7  128.01    8.05
  -5  -4   7  111.70   11.45
   4   4  -7  140.57    9.83
   4   4  -7  147.85    7.49
  -4  -4   7  147.09   12.02
  -4  -4   7  155.64    7.85
   3   4  -7   38.66    5.04
   3   4  -7   31.68    3.70
  -3  -4   7   37.82    3.49
   2   4  -7  116.00    7.53
   2   4  -7  114.16    6.65
  -2  -4   7  129.05    9.36
  -2  -4   7  115.75    4.61
  -2  -4   7  120.90    4.73
   1   4  -7   46.40    4.59
   1   4  -7   46.65    4.20
  -1  -4   7   58.37    5.75
   0   4  -7  720.28   23.80
   0   4  -7  727.69   23.32
   0  -4   7  726.92   25.79
  -1   4  -7  378.22   11.38
  -1   4  -7  404.93   15.30
  -1   4  -7  405.24   15.46
   1  -4   7  433.57   11.51
   1  -4   7  412.38   18.11
   1  -4   7  410.16   16.60
  -2   4  -7   54.49    3.44
  -2   4  -7   56.63    4.75
   2  -4   7   49.80    4.84
   2  -4   7   59.17    7.06
  -3   4  -7   86.65    6.17
  -3   4  -7   90.30    5.50
   3  -4   7  103.52    6.55
   3  -4   7  109.69    9.18
  -4   4  -7  105.68    6.81
  -4   4  -7  104.54    6.62
   4  -4   7   80.65    9.78
   4  -4   7   99.04    6.50
  -5   4  -7  251.04   12.80
  -5   4  -7  270.33   12.32
   5  -4   7  261.75   15.06
   5  -4   7  274.99   11.60
  -6   4  -7   30.48    4.99
  -6   4  -7   27.40    5.28
   6  -4   7   39.44    7.85
   6  -4   7   29.76    4.86
  -7   4  -7    5.37    3.48
  -7   4  -7    1.50    5.01
   7  -4   7    3.55    4.31
   7  -4   7   -2.67    5.98
  -8   4  -7    6.47    4.43
  -8   4  -7    3.32    6.22
   8  -4   7    1.22    8.04
   8  -4   7   12.11    4.79
  -9   4  -7   19.39    6.78
  -9   4  -7    5.96    5.96
   9  -4   7    5.68   10.29
 -10   4  -7    1.61   10.13
  10  -4   7    5.33   13.80
   9   3  -7   16.93    9.93
  -9  -3   7  -14.59   15.70
   8   3  -7   10.13    6.96
  -8  -3   7   19.61    7.53
  -8  -3   7    0.33   12.53
   7   3  -7   10.24    5.67
  -7  -3   7    4.14    7.79
  -7  -3   7   -2.11    5.04
   6   3  -7    2.69    4.65
   6   3  -7    3.45    2.69
  -6  -3   7   10.98    6.89
   5   3  -7    4.73    3.91
  -5  -3   7    6.01    3.11
  -5  -3   7   10.98    5.55
   4   3  -7   79.21    5.31
   4   3  -7   75.95    7.20
  -4  -3   7   75.99    5.00
  -4  -3   7   80.55    8.55
   3   3  -7  147.88    7.41
   3   3  -7  126.04    8.23
  -3  -3   7  143.86    6.11
  -3  -3   7  136.08    9.89
   2   3  -7  142.64    7.91
   2   3  -7  142.75    5.06
   2   3  -7  145.63    7.52
  -2  -3   7  143.89    5.01
  -2  -3   7  141.25    9.62
   1   3  -7   16.51    3.07
   1   3  -7   20.84    2.86
  -1  -3   7   22.55    4.25
   0   3  -7  118.29    6.73
   0   3  -7  109.60    6.23
   0  -3   7  110.78    7.46
  -1   3  -7  376.52   14.20
  -1   3  -7  378.94   11.36
   1  -3   7  368.61   11.32
   1  -3   7  378.53   16.16
   1  -3   7  370.45   15.33
  -2   3  -7  336.18   13.15
  -2   3  -7  342.69   11.61
   2  -3   7  316.04   15.11
   2  -3   7  315.40   13.29
  -3   3  -7   48.94    4.34
  -3   3  -7   44.31    4.03
   3  -3   7   47.23    6.17
   3  -3   7   47.33    4.66
  -4   3  -7   43.74    4.72
  -4   3  -7   40.42    4.78
   4  -3   7   39.15    4.69
   4  -3   7   40.64    6.71
  -5   3  -7   30.61    3.90
   5  -3   7   28.74    4.85
   5  -3   7   31.23    6.19
  -6   3  -7  115.73    9.53
  -6   3  -7  138.66    8.05
   6  -3   7  137.83    9.05
   6  -3   7  150.29   12.31
  -7   3  -7   11.42    5.82
   7  -3   7   10.37    7.47
  -8   3  -7    7.77    4.50
  -8   3  -7    4.94    5.53
   8  -3   7   -6.18    8.81
  -9   3  -7    6.40   11.68
   9  -3   7   -2.05   10.04
  10   2  -7    5.32   10.69
 -10  -2   7   22.36    9.99
 -10  -2   7   43.50   31.64
   9   2  -7    1.67    7.32
  -9  -2   7    6.97   13.32
  -9  -2   7   19.24    8.06
   8   2  -7    2.74    7.01
  -8  -2   7   17.55    6.45
  -8  -2   7   30.04   10.17
   7   2  -7   30.75    7.45
   7   2  -7   48.96    4.86
  -7  -2   7   40.64    6.26
  -7  -2   7   52.50   10.47
   6   2  -7  209.68   12.84
   6   2  -7  188.12    9.17
  -6  -2   7  220.43   15.07
  -6  -2   7  192.56   10.35
   5   2  -7   43.49    4.13
   5   2  -7   49.95    6.35
  -5  -2   7   48.70    4.74
  -5  -2   7   36.64    6.33
   4   2  -7  204.65    9.27
   4   2  -7  204.04   10.69
  -4  -2   7  191.48   12.29
  -4  -2   7  209.46    8.72
   3   2  -7   71.65    5.03
   3   2  -7   58.35    4.97
  -3  -2   7   63.34    3.88
  -3  -2   7   64.46    6.45
   2   2  -7  976.18   29.35
   2   2  -7  986.54   29.29
   2   2  -7 1002.67   25.87
  -2  -2   7  962.88   32.59
  -2  -2   7  994.11   25.70
   1   2  -7 1150.18   29.47
   1   2  -7 1134.96   33.67
   1   2  -7 1187.76   33.30
  -1  -2   7 1168.73   36.64
  -1  -2   7 1196.02   29.56
   0   2  -7  117.73    6.22
   0   2  -7  114.35    4.41
   0   2  -7  118.31    6.50
   0   2  -7  117.71    4.61
   0  -2   7  107.81    7.28
  -1   2  -7  369.16   12.19
  -1   2  -7  371.39   13.94
   1  -2   7  374.30   14.92
   1  -2   7  391.50   15.56
  -2   2  -7  118.02    6.66
  -2   2  -7  121.51    6.43
   2  -2   7  112.82    7.24
   2  -2   7  111.28    7.88
  -3   2  -7  782.38   24.47
  -3   2  -7  772.83   24.95
   3  -2   7  774.33   27.51
   3  -2   7  785.73   25.94
  -4   2  -7  181.87    8.85
  -4   2  -7  189.54   10.10
   4  -2   7  192.46   11.72
   4  -2   7  187.31    9.93
  -5   2  -7    3.54    3.02
  -5   2  -7    5.37    2.43
   5  -2   7   10.49    3.44
   5  -2   7    3.78    4.99
  -6   2  -7   47.16    5.40
  -6   2  -7   47.02    7.50
   6  -2   7   55.88    9.72
   6  -2   7   49.20    9.77
  -7   2  -7   12.46    3.95
   7  -2   7   20.67    7.87
   7  -2   7   20.54    6.12
  -8   2  -7   48.02    8.17
   8  -2   7   44.63    8.02
   8  -2   7   44.20   10.43
  -9   2  -7   12.39    8.81
   9  -2   7   13.22    8.24
   9  -2   7    4.64   10.66
  10   1  -7   -0.61    8.22
 -10  -1   7   13.67    9.68
 -10  -1   7   29.78   15.42
   9   1  -7    9.95    7.23
  -9  -1   7   -0.79    6.35
  -9  -1   7  -14.94   10.76
   8   1  -7   -0.76    3.43
   8   1  -7    6.56    6.26
  -8  -1   7   -3.39    8.04
  -8  -1   7   -5.48    4.71
   7   1  -7    5.75    3.25
   7   1  -7    2.39    4.84
  -7  -1   7    4.50    6.30
  -7  -1   7   -0.23    3.76
   6   1  -7   12.52    3.06
   6   1  -7   16.38    4.00
  -6  -1   7   14.48    4.05
  -6  -1   7   12.26    4.24
   5   1  -7  131.20    7.54
   5   1  -7  125.07    8.21
  -5  -1   7  142.58   10.55
  -5  -1   7  126.73    7.16
   4   1  -7   31.83    4.00
   4   1  -7   21.56    3.83
  -4  -1   7   21.09    3.29
  -4  -1   7   25.34    4.62
   3   1  -7   39.77    4.24
   3   1  -7   37.78    3.96
  -3  -1   7   42.76    5.26
  -3  -1   7   36.58    3.14
   2   1  -7   65.57    4.82
   2   1  -7   56.69    3.24
   2   1  -7   65.73    4.41
  -2  -1   7   61.56    5.65
  -2  -1   7   62.90    3.41
   1   1  -7  865.07   24.60
   1   1  -7  819.47   25.93
   1   1  -7  858.26   23.25
  -1  -1   7  885.93   23.39
  -1  -1   7  854.56   28.30
   0   1  -7  706.39   22.43
   0   1  -7  717.61   20.78
   0  -1   7  708.64   23.95
   0  -1   7  717.27   22.78
  -1   1  -7   23.55    3.15
  -1   1  -7   28.04    3.24
  -2   1  -7   90.28    5.68
  -2   1  -7   91.69    5.84
   2  -1   7   85.24    6.74
   2  -1   7   96.65    7.11
  -3   1  -7    4.31    2.19
  -3   1  -7   10.44    2.81
   3  -1   7   11.13    3.88
   3  -1   7    3.85    3.01
  -4   1  -7  350.68   15.68
  -4   1  -7  355.35   13.38
   4  -1   7  354.21   15.74
   4  -1   7  345.95   16.72
  -5   1  -7  144.37    7.40
  -5   1  -7  132.49    9.93
   5  -1   7  133.63   11.05
   5  -1   7  130.99    9.96
  -6   1  -7   36.60    6.99
  -6   1  -7   41.15    5.00
   6  -1   7   53.20    9.04
   6  -1   7   39.43    7.48
  -7   1  -7   -3.59    6.00
   7  -1   7   21.08    8.71
   7  -1   7    5.23    6.01
   8  -1   7   -5.91    7.29
   8  -1   7  -10.64    9.71
   9  -1   7   22.77   13.34
   9  -1   7   -4.52    9.07
  10   0  -7    8.76    7.68
 -10   0   7   13.59   12.93
 -10   0   7   15.55    7.83
   9   0  -7    7.09    6.11
  -9   0   7   20.08    9.09
  -9   0   7   15.49    6.73
   8   0  -7   60.27    8.08
   8   0  -7   76.70    6.53
  -8   0   7   74.28    7.79
  -8   0   7   85.01   11.64
   7   0  -7   25.33    6.44
   7   0  -7   32.07    4.74
  -7   0   7   40.66    5.67
  -7   0   7   27.60    6.01
   6   0  -7  134.41    9.35
   6   0  -7  147.17    8.31
  -6   0   7  135.58    8.18
  -6   0   7  136.94   11.66
   5   0  -7  105.58    7.37
   5   0  -7  110.91    7.76
  -5   0   7  124.54    9.15
  -5   0   7  118.82    6.98
   4   0  -7  582.37   20.05
   4   0  -7  577.39   19.38
  -4   0   7  561.45   18.17
  -4   0   7  535.44   21.72
   3   0  -7 1158.49   32.41
   3   0  -7 1172.23   34.44
  -3   0   7 1139.57   36.39
  -3   0   7 1132.75   31.77
   2   0  -7  195.63    9.27
   2   0  -7  190.72    7.33
  -2   0   7  187.31    7.48
  -2   0   7  181.15   10.34
   1   0  -7  701.69   22.27
   1   0  -7  700.27   19.24
  -1   0   7  684.32   20.16
  -1   0   7  656.47   19.13
  -1   0   7  667.36   23.41
   0   0  -7    6.69    2.16
   0   0  -7    7.25    2.18
   0   0   7    7.03    2.20
   0   0   7    8.07    2.45
   0   0   7   10.50    1.84
  -1   0  -7  832.22   25.08
  -1   0  -7  814.63   25.36
   1   0   7  783.82   26.77
   1   0   7  819.33   24.87
  -2   0  -7  532.14   17.80
  -2   0  -7  533.97   19.17
   2   0   7  519.75   18.83
   2   0   7  539.74   20.50
  -3   0  -7   87.10    5.42
  -3   0  -7   79.08    6.60
   3   0   7   97.59    7.35
   3   0   7   91.30    7.15
  -4   0  -7  175.58    8.35
  -4   0  -7  167.13   10.54
   4   0   7  178.00   11.17
   4   0   7  168.46   10.79
  -5   0  -7   13.21    2.72
  -5   0  -7   17.94    5.70
   5   0   7   11.83    4.73
   5   0   7   13.36    5.94
  -6   0  -7   63.74    5.28
  -6   0  -7   57.90    7.59
   6   0   7   54.80    9.35
   6   0   7   58.14    9.83
  -7   0  -7   40.63    8.99
   7   0   7   30.56   10.33
   7   0   7   52.39   10.39
  -8   0  -7    2.84    8.40
   8   0   7   18.01    9.74
   8   0   7   27.44    9.74
  11  -1  -7    1.59    8.92
 -11   1   7  -18.42   10.60
 -11   1   7    7.15   14.21
  10  -1  -7   14.10    7.92
 -10   1   7   -9.72    7.33
 -10   1   7    5.01   10.05
   9  -1  -7   10.05    4.77
   9  -1  -7   11.82    6.70
  -9   1   7    1.41    7.50
  -9   1   7   10.35    6.35
   8  -1  -7    9.97    5.13
  -8   1   7    9.66    4.56
  -8   1   7    2.14    5.95
   7  -1  -7   33.50    6.47
   7  -1  -7   35.04    5.20
  -7   1   7   26.54    5.28
   6  -1  -7    8.67    3.72
  -6   1   7   12.03    4.82
  -6   1   7   12.40    3.57
   5  -1  -7    3.90    2.42
   5  -1  -7    2.82    2.83
  -5   1   7    4.31    2.48
  -5   1   7   -0.16    3.14
   4  -1  -7    8.82    2.44
   4  -1  -7    3.28    2.40
  -4   1   7   -1.24    2.64
  -4   1   7    4.94    2.31
   3  -1  -7  317.67   10.58
   3  -1  -7  298.37   12.96
  -3   1   7  308.77   11.46
  -3   1   7  293.13   13.67
   2  -1  -7  869.38   22.61
   2  -1  -7  810.87   26.51
  -2   1   7  865.68   25.01
  -2   1   7  831.94   22.68
  -2   1   7  838.94   27.79
   1  -1  -7   33.72    3.71
  -1   1   7   29.76    2.04
  -1   1   7   32.09    3.22
  -1   1   7   32.79    3.94
   0  -1  -7   77.30    5.32
   0  -1  -7   83.63    5.58
   0   1   7   81.91    3.86
   0   1   7   84.03    4.46
   0   1   7   83.59    6.30
  -1  -1  -7   10.31    2.65
  -1  -1  -7   10.64    2.35
   1   1   7    9.33    2.93
   1   1   7   13.61    2.83
  -2  -1  -7  377.41   13.60
  -2  -1  -7  359.13   15.27
   2   1   7  349.84   15.95
   2   1   7  345.57   14.15
  -3  -1  -7  459.99   18.81
  -3  -1  -7  466.31   15.92
   3   1   7  454.84   18.38
   3   1   7  459.44   19.65
  -4  -1  -7   11.43    4.06
  -4  -1  -7   21.25    3.67
   4   1   7   16.72    4.66
  -5  -1  -7   45.44    6.99
  -5  -1  -7   44.37    4.47
   5   1   7   38.04    7.83
   5   1   7   34.79    8.20
  -6  -1  -7   -3.36    5.32
   6   1   7   12.78    8.06
   6   1   7   -0.69    6.84
  -7  -1  -7   33.20    8.20
   7   1   7   17.09    8.22
   7   1   7   40.24    9.81
  -8  -1  -7    5.05    9.66
   8   1   7   13.81   10.72
  11  -2  -7   16.91    9.66
 -11   2   7   28.01   16.16
  10  -2  -7    9.70    5.56
  10  -2  -7   24.88    8.46
 -10   2   7   13.55    7.94
 -10   2   7   24.19    7.72
   9  -2  -7   23.50    6.30
   9  -2  -7   22.20    5.99
  -9   2   7   33.14    7.03
  -9   2   7   46.24    9.56
   8  -2  -7   35.40    6.88
   8  -2  -7   28.46    5.76
  -8   2   7   28.91    5.36
   7  -2  -7   75.12    6.88
   7  -2  -7   94.96    8.15
  -7   2   7   84.78    8.33
  -7   2   7   86.09    6.88
   6  -2  -7   31.75    4.97
   6  -2  -7   29.73    5.54
  -6   2   7   32.12    5.88
  -6   2   7   29.50    5.32
   5  -2  -7  465.72   18.62
   5  -2  -7  478.01   16.82
  -5   2   7  460.81   18.87
  -5   2   7  466.94   17.42
   4  -2  -7  257.32   12.46
   4  -2  -7  273.02    9.95
  -4   2   7  253.55   11.01
  -4   2   7  248.22   12.25
   3  -2  -7  224.73    7.33
   3  -2  -7  223.50   11.19
  -3   2   7  213.54   10.99
  -3   2   7  211.76    9.61
  -3   2   7  212.93    7.80
   2  -2  -7  116.40    7.26
  -2   2   7  121.46    8.09
  -2   2   7  120.07    6.81
   1  -2  -7  122.69    7.30
  -1   2   7  135.56    8.39
  -1   2   7  119.73    7.18
   0  -2  -7  760.60   25.65
   0  -2  -7  762.32   24.56
   0  -2  -7  771.89   21.87
   0   2   7  746.17   26.78
   0   2   7  808.73   21.30
  -1  -2  -7   84.23    5.70
  -1  -2  -7   84.45    7.08
   1   2   7   74.29    4.90
   1   2   7   60.78    7.48
  -2  -2  -7  348.78   15.82
  -2  -2  -7  373.12   13.69
   2   2   7  362.59   14.32
   2   2   7  351.06   16.92
  -3  -2  -7    1.33    3.97
  -3  -2  -7    8.38    2.37
   3   2   7   -0.46    3.82
   3   2   7   14.73    4.24
  -4  -2  -7  112.63   10.70
  -4  -2  -7  108.93    6.08
   4   2   7   92.83    9.22
   4   2   7  107.21    9.73
  -5  -2  -7  105.69    9.64
   5   2   7   93.76   10.02
   5   2   7   69.01   10.14
  -6  -2  -7    4.85    6.16
   6   2   7   10.60    8.23
   6   2   7   12.43    8.76
  -7  -2  -7   11.59    7.69
   7   2   7    0.54    9.92
   7   2   7   10.45    9.87
  11  -3  -7   -6.83    9.35
  11  -3  -7    7.12    8.40
 -11   3   7    3.69    7.34
  10  -3  -7    7.51    5.58
  10  -3  -7   22.55    8.21
 -10   3   7   12.87    6.98
 -10   3   7    4.20    7.13
   9  -3  -7   -6.55    6.35
   9  -3  -7    2.83    4.70
  -9   3   7   -5.06    6.50
  -9   3   7   -2.29    4.66
   8  -3  -7   18.08    5.59
   8  -3  -7    7.24    4.17
  -8   3   7   16.15    5.23
  -8   3   7   10.65    5.23
   7  -3  -7   -0.46    3.20
   7  -3  -7   -1.38    4.09
  -7   3   7    6.39    3.24
  -7   3   7    1.97    3.93
   6  -3  -7   11.00    3.77
   6  -3  -7   17.81    4.06
  -6   3   7   18.64    4.37
  -6   3   7   25.35    5.05
   5  -3  -7   68.28    5.10
  -5   3   7   53.09    5.79
  -5   3   7   55.26    5.31
   4  -3  -7  248.36   12.53
   4  -3  -7  262.71    9.14
  -4   3   7  254.51    9.68
  -4   3   7  271.32   12.65
  -4   3   7  263.47   11.68
   3  -3  -7   49.33    5.59
  -3   3   7   40.25    4.13
  -3   3   7   33.18    4.38
   2  -3  -7   77.14    5.99
  -2   3   7   64.27    5.45
  -2   3   7   72.41    6.68
   1  -3  -7   12.67    3.04
  -1   3   7   15.89    4.01
  -1   3   7   12.91    3.14
   0  -3  -7  262.25    9.59
   0  -3  -7  275.42   12.00
   0  -3  -7  266.16   13.42
   0   3   7  268.93    8.62
  -1  -3  -7  576.05   22.68
  -1  -3  -7  583.75   19.83
   1   3   7  585.27   18.36
   1   3   7  572.99   23.56
  -2  -3  -7   23.37    5.33
  -2  -3  -7   18.83    3.42
   2   3   7   27.14    4.81
  -3  -3  -7   42.04    4.40
  -3  -3  -7   35.84    7.28
   3   3   7   38.83    8.20
   3   3   7   43.30    6.41
  -4  -3  -7   12.51    4.93
   4   3   7   18.40    5.76
   4   3   7   14.21    5.58
  -5  -3  -7   11.66    6.83
   5   3   7   20.19    7.72
   5   3   7   23.86    7.80
  -6  -3  -7   13.28    7.73
   6   3   7   36.64    9.62
   6   3   7   25.95   10.43
  11  -4  -7    6.50    9.42
  11  -4  -7   15.80    7.50
 -11   4   7   18.22    8.17
  10  -4  -7   12.47    6.33
  10  -4  -7   16.75    7.59
 -10   4   7   10.99    6.31
   9  -4  -7    7.76    4.57
  -9   4   7   14.97    5.76
  -9   4   7    1.61    5.13
   8  -4  -7    3.81    4.09
   8  -4  -7   -0.71    4.90
  -8   4   7    5.60    4.33
  -8   4   7    5.16    4.81
   7  -4  -7   92.56    7.82
   7  -4  -7  100.78    8.07
  -7   4   7   90.11    8.27
  -7   4   7   88.04    7.37
   6  -4  -7  103.83    8.19
   6  -4  -7  120.90    7.50
  -6   4   7   97.95    7.71
  -6   4   7  100.10    7.73
   5  -4  -7   80.69    7.11
   5  -4  -7   82.58    5.33
  -5   4   7   77.81    6.72
  -5   4   7   80.61    6.75
   4  -4  -7  100.16    4.51
   4  -4  -7   91.07    7.75
  -4   4   7  113.17    5.28
  -4   4   7  103.75    7.47
  -4   4   7  113.71    8.55
   3  -4  -7    9.65    3.42
  -3   4   7    3.95    3.16
   2  -4  -7  314.27   14.50
  -2   4   7  325.49   15.15
   1  -4  -7  102.94    7.73
  -1   4   7  109.50    8.15
  -1   4   7   83.98    7.26
   0  -4  -7  134.97    9.53
   0  -4  -7  150.97    8.36
   0  -4  -7  134.44    7.11
   0   4   7  146.18    5.93
   0   4   7  130.27   10.71
  -1  -4  -7   69.33    6.13
  -1  -4  -7   72.45    7.27
   1   4   7   74.54    5.50
   1   4   7   86.21    8.81
  -2  -4  -7   56.87    7.33
  -2  -4  -7   45.88    5.21
   2   4   7   65.02    6.08
   2   4   7   59.65    8.41
  -3  -4  -7  174.78    8.46
  -3  -4  -7  177.52   12.45
   3   4   7  163.98   14.29
  -4  -4  -7   23.90    7.79
   4   4   7   22.94    6.70
   4   4   7   31.54    9.72
   5   4   7   31.99    8.80
   5   4   7   23.84   10.32
  -6  -4  -7    4.47    9.83
   6   4   7    2.28   11.32
   6   4   7   -6.24   11.54
  11  -5  -7    4.04    8.92
  11  -5  -7   13.18    7.80
  10  -5  -7   -1.24    5.54
  10  -5  -7   11.08    7.39
 -10   5   7    3.20    6.67
   9  -5  -7    0.65    5.65
   9  -5  -7   -4.60    6.21
  -9   5   7    8.01    5.43
  -9   5   7    5.37    5.17
   8  -5  -7    6.71    5.42
   8  -5  -7    1.91    5.41
  -8   5   7   11.62    4.54
  -8   5   7   -0.29    4.73
   7  -5  -7   31.12    6.20
   7  -5  -7   28.34    5.57
  -7   5   7   31.22    6.53
  -7   5   7   38.71    6.71
   6  -5  -7   53.21    6.00
   6  -5  -7   60.14    7.49
  -6   5   7   56.70    6.54
  -6   5   7   57.37    6.30
   5  -5  -7   35.08    4.06
   5  -5  -7   31.24    6.23
  -5   5   7   29.85    5.19
  -5   5   7   31.23    5.15
   4  -5  -7    8.97    3.99
  -4   5   7    4.13    3.57
  -4   5   7    2.99    3.63
   3  -5  -7   37.14    5.39
  -3   5   7   34.66    4.78
  -3   5   7   52.55    7.38
   2  -5  -7   55.41    6.33
  -2   5   7   64.76    6.77
  -2   5   7   61.71    5.77
   1  -5  -7  217.53   12.31
   1  -5  -7  228.71    7.50
  -1   5   7  216.99   13.39
  -1   5   7  227.39   12.21
  -1   5   7  226.43    6.79
   0  -5  -7   22.68    5.05
   0  -5  -7   17.06    3.70
   0   5   7   11.23    4.74
   0   5   7   19.60    3.31
  -1  -5  -7    5.45    5.27
  -1  -5  -7   14.52    3.78
   1   5   7   18.58    3.75
   1   5   7    6.94    4.90
  -2  -5  -7   12.58    3.37
  -2  -5  -7   15.28    5.01
   2   5   7    0.80    5.65
   2   5   7    7.50    4.38
  -3  -5  -7   -0.60    5.55
   3   5   7   17.39    5.74
   3   5   7   -5.09    7.47
  -4  -5  -7   69.29   12.29
   4   5   7   48.06    8.78
   4   5   7   34.46   10.59
  -5  -5  -7   -5.88    8.79
   5   5   7   -9.70   17.01
   5   5   7    5.02    9.70
  11  -6  -7    7.30    9.91
  11  -6  -7   -0.04    6.79
 -11   6   7    2.22    8.43
  10  -6  -7   -9.65    5.85
  10  -6  -7   12.76    8.02
 -10   6   7    4.21    6.59
   9  -6  -7   19.02    7.14
   9  -6  -7   13.63    7.10
  -9   6   7    8.09    5.89
   8  -6  -7   18.57    6.01
  -8   6   7   25.69    4.61
  -8   6   7   21.75    6.31
   7  -6  -7   10.48    4.76
   7  -6  -7   32.12    6.31
  -7   6   7   22.18    4.73
  -7   6   7   18.10    4.44
   6  -6  -7   40.06    5.73
   6  -6  -7   37.63    6.94
  -6   6   7   42.65    6.42
  -6   6   7   40.68    5.74
   5  -6  -7   18.47    5.36
   5  -6  -7   21.69    3.88
  -5   6   7   17.68    4.76
  -5   6   7   27.37    5.08
   4  -6  -7   40.02    6.47
  -4   6   7   56.44    7.88
  -4   6   7   68.09    6.79
   3  -6  -7   89.25    8.55
  -3   6   7   83.39    7.37
  -3   6   7   75.52    7.36
   2  -6  -7   52.82    6.61
  -2   6   7   62.69    7.95
  -2   6   7   63.80    7.00
   1  -6  -7   75.73    7.76
   1  -6  -7   69.91    7.72
  -1   6   7   77.92    8.56
  -1   6   7   93.08    5.24
   0  -6  -7    8.94    4.67
   0  -6  -7    1.74    3.50
   0   6   7    0.43    3.12
   0   6   7    2.79    4.94
  -1  -6  -7   85.04    9.75
  -1  -6  -7   96.35    7.54
   1   6   7   89.30    8.28
   1   6   7   78.58   10.65
  -2  -6  -7   35.93    8.57
   2   6   7   25.32    8.67
  -3  -6  -7    8.69    7.47
   3   6   7   27.25   11.57
  -4  -6  -7   -2.40    7.91
   4   6   7   -7.15   10.06
  11  -7  -7   23.70    9.66
 -11   7   7  -11.04    8.70
  10  -7  -7    4.98    7.28
  10  -7  -7   -6.24    8.69
 -10   7   7    5.54    6.39
   9  -7  -7   12.55    6.29
   9  -7  -7   13.34    8.02
  -9   7   7   13.43    6.54
   8  -7  -7   10.68    6.68
   8  -7  -7    7.73    5.66
  -8   7   7   -0.02    5.84
  -8   7   7    5.53    4.89
   7  -7  -7   11.89    5.78
  -7   7   7   12.62    4.85
  -7   7   7   14.68    5.15
   6  -7  -7   -2.21    4.28
   6  -7  -7    0.05    4.87
  -6   7   7   -0.18    4.50
  -6   7   7   -1.36    4.48
   5  -7  -7   19.62    4.02
   5  -7  -7   20.74    5.45
  -5   7   7   24.07    5.59
  -5   7   7   17.79    5.22
   4  -7  -7    9.78    4.39
  -4   7   7   19.64    5.31
  -4   7   7    7.92    4.32
   3  -7  -7   23.46    4.95
  -3   7   7   23.15    6.36
  -3   7   7   20.88    4.59
   2  -7  -7   -0.80    4.37
  -2   7   7   -4.16    5.32
  -2   7   7    1.45    4.44
   1  -7  -7    4.01    4.79
   1  -7  -7   -3.60    4.57
  -1   7   7   -1.49    6.22
   0  -7  -7   11.69    6.29
   0  -7  -7   10.73    4.70
   0   7   7   -1.69    6.49
  -1  -7  -7    2.35    6.57
  -1  -7  -7    4.66    4.77
   1   7   7    2.02    7.55
   2   7   7   28.00   19.07
  -3  -7  -7   -5.22    8.14
   3   7   7   22.53   10.50
  11  -8  -7   21.09   10.71
 -11   8   7   -2.46    8.38
  10  -8  -7   15.44    7.08
  10  -8  -7    3.64    9.73
 -10   8   7    9.16    9.22
   9  -8  -7    4.05    7.90
   9  -8  -7   -6.64    6.98
  -9   8   7   -3.07    6.43
   8  -8  -7    7.02    5.75
   8  -8  -7   24.77    7.87
  -8   8   7    6.97    5.56
   7  -8  -7   12.44    5.59
  -7   8   7   20.80    5.95
   6  -8  -7   13.34    6.41
  -6   8   7   14.85    5.67
  -6   8   7    7.07    5.46
   5  -8  -7   25.75    7.03
  -5   8   7   34.44    6.95
  -5   8   7   25.28    5.95
   4  -8  -7   10.72    5.46
  -4   8   7   14.61    6.36
  -4   8   7   14.93    5.14
   3  -8  -7   62.86    8.95
  -3   8   7   67.05    8.95
  -3   8   7   76.12    9.73
   2  -8  -7   14.76    5.97
   2  -8  -7   14.76    5.93
  -2   8   7    4.47    6.86
  -2   8   7   14.93    5.15
   1  -8  -7   14.40    5.56
   1  -8  -7    1.39    5.79
  -1   8   7   15.22    8.13
   0  -8  -7   14.04    7.53
   0  -8  -7   11.80    5.63
   0   8   7   20.72    9.61
  -1  -8  -7  -12.23    6.89
   1   8   7   -3.83   10.30
  -2  -8  -7   15.93    9.66
   2   8   7   20.17   10.80
  10  -9  -7   14.65    7.98
 -10   9   7    2.37    9.30
   8  -9  -7   -2.35    6.30
  -8   9   7    5.21    6.20
   7  -9  -7   -4.80    5.93
  -7   9   7   -0.58    6.32
  -7   9   7   -1.68    6.46
   6  -9  -7    4.13    6.07
  -6   9   7    3.10    5.34
   5  -9  -7    9.01    6.67
  -5   9   7   11.72    5.52
  -5   9   7    9.56    7.16
  -4   9   7   -4.13    4.89
  -4   9   7   11.86    7.32
   3  -9  -7    3.05    6.89
  -3   9   7   -9.03    8.07
  -3   9   7   -5.38    6.14
   2  -9  -7    4.63    6.93
   2  -9  -7   -4.18    6.34
  -2   9   7    8.36    9.58
   1  -9  -7   12.32    7.86
  -1   9   7   -7.08    9.83
   0  -9  -7   -0.70    8.99
   0   9   7   13.85   11.60
  10 -10  -7   12.18    9.82
   9 -10  -7    3.73    7.71
  -9  10   7    0.23    8.28
   8 -10  -7   -5.25    6.98
  -8  10   7    1.08    7.35
   7 -10  -7    4.59    7.75
   6 -10  -7   -1.59    8.49
  -6  10   7  -11.02    7.59
  -6  10   7  -12.39    7.99
   5 -10  -7    6.71    6.77
  -5  10   7    6.64    8.79
  -5  10   7   12.86    8.59
   4 -10  -7    6.12    7.31
  -4  10   7   44.32   14.40
  -4  10   7    5.22    9.23
   3 -10  -7   -0.21    7.50
  -3  10   7   27.09    8.76
  -3  10   7  -10.10   10.12
   2 -10  -7   -0.76    8.04
  -2  10   7    4.51   17.98
   1 -10  -7   -0.34    8.49
  -1  10   7  -16.88   12.11
   8 -11  -7   -1.57    9.26
  -8  11   7    9.61    8.63
   7 -11  -7    7.47    7.97
  -7  11   7   -8.18    7.71
   6 -11  -7   25.68   10.10
  -6  11   7    6.56    9.88
  -6  11   7   17.36    8.34
  -5  11   7   12.07   10.25
  -5  11   7   16.13    8.32
   4 -11  -7   -4.98    8.35
  -4  11   7   -4.51    9.33
  -4  11   7   -0.02   10.84
  -2  13  -8    3.27    7.70
   2 -13   8    3.80   11.12
  -3  13  -8    5.21    8.42
   3 -13   8  -17.63    9.88
   3 -13   8   22.02   12.60
  -4  13  -8   -0.23    6.99
   4 -13   8   -4.06   12.57
   5 -13   8   26.24   14.91
  -6  13  -8   -5.12    6.94
   6 -13   8    9.05   12.33
   0  12  -8    8.73    6.85
  -1  12  -8  -17.08   11.52
  -1  12  -8   17.46    6.88
   1 -12   8    6.16    9.60
  -2  12  -8   -1.22    6.47
   2 -12   8   -1.95   14.11
   2 -12   8   19.54    9.34
  -3  12  -8   -3.15    6.27
   3 -12   8   -8.51   10.96
   3 -12   8    4.12    8.91
  -4  12  -8   11.42    6.73
   4 -12   8    4.88   11.68
   4 -12   8   -7.36    8.42
  -5  12  -8   -1.52    5.67
   5 -12   8   17.47   10.87
  -6  12  -8    1.86    5.87
  -7  12  -8   14.55    7.76
   7 -12   8  -17.99   12.49
  -8  12  -8    1.29    7.10
   2  11  -8   -9.09    9.89
  -2 -11   8    5.94   11.69
   1  11  -8   12.60    8.54
   1  11  -8    3.81    6.07
  -1 -11   8   16.01   10.95
   0  11  -8    4.79    7.57
   0  11  -8    7.38    5.56
   0 -11   8   -2.88    9.19
  -1  11  -8    8.92    5.44
  -1  11  -8   13.42    9.15
   1 -11   8    2.73    8.26
  -2  11  -8   19.47    5.46
  -2  11  -8   29.73   10.05
   2 -11   8    7.22    8.14
   2 -11   8   29.97   11.62
  -3  11  -8   14.37    5.14
   3 -11   8    6.07   10.38
   3 -11   8    1.44    7.43
  -4  11  -8    8.65    4.84
   4 -11   8   11.75    7.58
   4 -11   8   -1.25   10.15
  -5  11  -8   -0.90    4.97
  -5  11  -8    3.50    5.74
   5 -11   8   19.71    9.65
  -6  11  -8   10.03    6.09
  -6  11  -8    1.42    5.31
   6 -11   8    1.74   11.12
  -7  11  -8   -1.43    6.56
  -7  11  -8   -6.16    6.45
   7 -11   8    7.72    9.98
  -8  11  -8   10.23    8.10
  -8  11  -8   21.44    7.31
   8 -11   8   30.48   13.46
  -9  11  -8    3.08    8.43
  -9  11  -8   13.89    7.57
   9 -11   8    5.83   12.21
   3  10  -8  -12.76   10.23
  -3 -10   8   11.79   11.64
   2  10  -8   -2.99    7.74
  -2 -10   8    5.08   10.13
   1  10  -8   10.34    7.79
  -1 -10   8   19.21    9.10
   0  10  -8   10.53    5.15
   0  10  -8    9.92    6.38
   0 -10   8   12.47    7.82
  -1  10  -8   15.45    4.59
  -1  10  -8   22.67    7.75
  -2  10  -8    4.83    6.45
  -2  10  -8    5.97    4.94
   2 -10   8   13.38    7.71
   2 -10   8   -9.31    8.90
   2 -10   8   -1.53    6.61
  -3  10  -8    7.84    4.31
  -3  10  -8    4.89    4.02
   3 -10   8   10.22    9.25
   3 -10   8    3.04    6.33
  -4  10  -8   30.46    4.65
  -4  10  -8   29.42    5.95
   4 -10   8   26.67   10.10
   4 -10   8   28.93    6.40
  -5  10  -8   21.69    4.80
  -5  10  -8   25.13    6.19
   5 -10   8   24.36    8.85
   5 -10   8   24.08    5.55
  -6  10  -8    7.67    4.84
  -6  10  -8   18.48    5.68
   6 -10   8    9.68    9.36
  -7  10  -8   -0.55    6.09
  -7  10  -8   -7.21    5.14
   7 -10   8    2.42   10.03
  -8  10  -8    9.08    6.05
  -8  10  -8    0.94    6.81
   8 -10   8   11.39   19.02
  -9  10  -8   26.45    8.61
   9 -10   8   27.52   13.66
   4   9  -8   -8.82    9.15
  -4  -9   8    3.20   12.65
   3   9  -8    9.00    7.49
  -3  -9   8   15.58   10.02
   2   9  -8    3.92    4.67
   2   9  -8    1.48    6.41
  -2  -9   8    1.86    7.44
   1   9  -8   -4.14    5.99
   1   9  -8   -6.11    3.99
  -1  -9   8    1.30    6.43
   0   9  -8   12.62    5.92
   0   9  -8   12.48    3.96
   0  -9   8   19.06    7.40
   0  -9   8   10.18    5.30
  -1   9  -8   24.54    6.32
  -1   9  -8   22.71    4.89
   1  -9   8   22.90    6.25
   1  -9   8   21.11    3.87
  -2   9  -8   35.97    7.36
  -2   9  -8   22.58    3.39
  -2   9  -8   19.61    4.38
   2  -9   8   19.61    8.48
   2  -9   8   14.29    5.73
  -3   9  -8    6.19    3.17
  -3   9  -8    8.44    3.67
   3  -9   8   18.86    8.35
   3  -9   8    8.64    5.03
  -4   9  -8    5.06    4.03
  -4   9  -8    3.63    3.20
   4  -9   8   13.71    7.96
   4  -9   8    2.55    4.51
  -5   9  -8   21.52    4.67
  -5   9  -8   34.97    5.85
   5  -9   8   27.56    9.07
   5  -9   8   20.23    4.99
  -6   9  -8   17.67    4.78
  -6   9  -8   14.89    4.31
   6  -9   8   21.94    9.01
  -7   9  -8   -0.94    5.25
  -7   9  -8    2.50    4.72
   7  -9   8    7.30    8.29
  -8   9  -8   -2.44    5.49
  -8   9  -8    8.58    5.97
   8  -9   8   -5.39   11.20
  -9   9  -8   12.38    7.62
  -9   9  -8    0.51    6.41
   9  -9   8    1.59   12.27
   5   8  -8  -11.63    9.85
  -5  -8   8   21.90   13.13
   4   8  -8   13.58    7.88
  -4  -8   8   10.36    8.96
   3   8  -8   -7.61    6.88
  -3  -8   8   11.15    8.54
   2   8  -8   38.92    7.63
   2   8  -8   23.28    4.53
  -2  -8   8   27.85    4.75
  -2  -8   8   26.27    7.95
   1   8  -8   26.81    6.26
   1   8  -8   22.05    4.70
  -1  -8   8   28.41    6.89
  -1  -8   8   25.23    3.99
   0   8  -8   20.84    6.18
   0   8  -8   24.72    4.74
   0  -8   8   10.55    6.09
   0  -8   8   19.54    3.00
  -1   8  -8   29.42    5.39
  -1   8  -8   35.94    6.70
   1  -8   8   34.03    3.79
   1  -8   8   36.37    7.23
  -2   8  -8   28.89    4.89
  -2   8  -8   22.28    3.62
   2  -8   8   29.85    6.18
   2  -8   8   29.10    8.42
  -3   8  -8   93.95    7.82
  -3   8  -8  104.04    5.71
   3  -8   8  103.25    8.54
   3  -8   8   91.69   11.08
  -4   8  -8   17.59    4.10
  -4   8  -8   28.06    4.43
   4  -8   8   28.70    4.95
   4  -8   8   42.34    8.40
  -5   8  -8   11.58    3.63
  -5   8  -8    3.80    3.85
   5  -8   8    4.60    6.97
   5  -8   8    5.01    3.84
  -6   8  -8   20.68    5.05
  -6   8  -8   14.38    4.53
   6  -8   8   18.77    7.76
  -7   8  -8   17.49    4.93
  -7   8  -8    3.21    5.30
   7  -8   8   16.21    8.59
  -8   8  -8   16.15    7.10
  -8   8  -8   11.30    5.67
   8  -8   8    8.96    9.05
  -9   8  -8    9.85    7.79
  -9   8  -8   -0.77    6.46
   9  -8   8   21.30   13.79
 -10   8  -8    7.27    7.70
  10  -8   8   -6.28   15.27
   6   7  -8   20.80   10.56
  -6  -7   8    7.77   16.56
   5   7  -8    2.36    7.81
  -5  -7   8    7.26   10.51
  -5  -7   8    3.38    6.07
   4   7  -8    4.23    6.73
   4   7  -8   11.38    3.81
  -4  -7   8   -1.78    8.06
  -4  -7   8    7.30    4.60
   3   7  -8    5.06    5.70
  -3  -7   8   -3.06    6.01
  -3  -7   8    6.98    3.64
   2   7  -8    8.43    4.81
   2   7  -8   11.40    3.37
  -2  -7   8    7.38    2.71
  -2  -7   8    1.45    5.33
   1   7  -8   38.17    5.03
   1   7  -8   42.37    5.76
  -1  -7   8   37.51    3.31
  -1  -7   8   33.65    8.10
   0   7  -8   57.36    6.63
   0  -7   8   63.19    3.17
   0  -7   8   49.76    7.09
   0  -7   8   58.47    3.39
  -1   7  -8   16.81    4.00
  -1   7  -8   18.24    5.02
   1  -7   8   18.39    2.46
   1  -7   8   19.55    5.47
   1  -7   8   23.15    2.35
  -2   7  -8    2.85    2.62
  -2   7  -8    2.81    1.92
   2  -7   8    1.74    3.99
   2  -7   8    3.51    6.07
   2  -7   8    5.41    2.54
  -3   7  -8   94.96    5.28
  -3   7  -8   82.48    6.82
   3  -7   8   96.78    7.78
   3  -7   8   88.65    9.87
  -4   7  -8   78.65    6.88
  -4   7  -8   85.44    5.76
   4  -7   8   89.65   10.80
   4  -7   8   78.52    6.85
  -5   7  -8   18.14    4.72
  -5   7  -8   25.52    4.36
   5  -7   8   27.37    5.10
   5  -7   8   39.12    8.07
  -6   7  -8   10.20    3.96
  -6   7  -8    1.89    3.54
   6  -7   8    2.92    7.50
   6  -7   8    2.59    3.29
  -7   7  -8    5.17    4.99
  -7   7  -8    0.90    5.40
   7  -7   8    9.68    9.62
  -8   7  -8   -2.69    4.73
  -8   7  -8    1.40    6.45
   8  -7   8    1.69    8.29
  -9   7  -8    1.24    6.31
  -9   7  -8   -1.82    7.94
 -10   7  -8    2.92    7.24
 -10   7  -8    5.54   10.48
  10  -7   8  -11.21   14.14
   7   6  -8   18.76   11.36
  -7  -6   8   17.70   16.22
  -7  -6   8   10.78   11.36
   6   6  -8   34.47    9.22
  -6  -6   8   25.48    6.55
  -6  -6   8   31.07   10.89
   5   6  -8   16.45    7.06
  -5  -6   8   12.37    8.88
   4   6  -8   10.04    6.59
   4   6  -8    7.59    3.24
  -4  -6   8    4.54    3.97
  -4  -6   8    6.47    7.28
   3   6  -8   53.10    6.91
   3   6  -8   51.03    5.38
  -3  -6   8   42.83    8.23
   2   6  -8   61.85    5.39
   2   6  -8   50.88    6.40
  -2  -6   8   60.83    4.14
  -2  -6   8   53.26    8.79
  -2  -6   8   63.01    3.94
   1   6  -8  141.93    9.70
   1   6  -8  153.15    8.43
  -1  -6   8  128.18   11.53
   0   6  -8   39.74    5.16
   0   6  -8   26.93    4.64
   0  -6   8   37.19    6.02
  -1   6  -8  198.03   14.99
  -1   6  -8  213.69   11.54
   1  -6   8  239.39   12.93
  -2   6  -8  141.61    8.65
  -2   6  -8  147.31    5.69
   2  -6   8  154.62    9.81
   2  -6   8  136.12   11.53
   2  -6   8  142.42    5.97
  -3   6  -8   46.87    5.04
  -3   6  -8   52.92    3.88
   3  -6   8   60.27    7.92
   3  -6   8   56.70    5.77
  -4   6  -8  116.04    6.76
  -4   6  -8  115.86    8.06
   4  -6   8  114.42   11.35
   4  -6   8  120.36    7.61
  -5   6  -8   27.70    4.24
  -5   6  -8   15.70    4.17
   5  -6   8   21.81    7.04
   5  -6   8   21.71    4.36
  -6   6  -8   42.48    6.02
  -6   6  -8   46.61    5.63
   6  -6   8   55.19    9.64
   6  -6   8   51.14    5.25
  -7   6  -8   25.41    4.75
  -7   6  -8   19.14    5.84
   7  -6   8   20.93    4.27
   7  -6   8   19.13    7.09
  -8   6  -8   24.77    5.49
  -8   6  -8   12.61    6.18
   8  -6   8    9.69    9.98
  -9   6  -8   -5.41    5.68
  -9   6  -8    6.15    7.49
   9  -6   8   17.02   14.00
 -10   6  -8    1.27    6.79
 -10   6  -8    5.44    9.38
  10  -6   8    5.75   12.93
   8   5  -8  -20.94   13.17
  -8  -5   8    8.63    8.17
  -8  -5   8   -5.41   18.03
   7   5  -8   -6.48    9.21
  -7  -5   8   11.14   13.20
  -7  -5   8   19.29    7.68
   6   5  -8  -10.33    6.10
  -6  -5   8    1.43    4.95
   5   5  -8   -2.59    5.48
   5   5  -8   -3.64    2.84
  -5  -5   8   -0.65    6.58
  -5  -5   8    6.29    3.79
   4   5  -8   12.05    4.51
   4   5  -8   10.37    3.03
  -4  -5   8    8.62    5.49
  -4  -5   8   15.46    3.23
   3   5  -8   73.37    5.74
   3   5  -8   70.44    7.83
  -3  -5   8   89.55    4.92
  -3  -5   8   73.55    8.68
   2   5  -8   64.00    5.66
   2   5  -8   62.42    6.29
  -2  -5   8   60.46    3.11
  -2  -5   8   46.01    7.05
  -2  -5   8   58.77    3.22
   1   5  -8    9.07    2.54
  -1  -5   8    9.97    3.63
   0   5  -8   21.33    3.59
   0   5  -8   24.39    4.86
   0  -5   8   25.40    5.02
  -1   5  -8   68.14    6.17
  -1   5  -8   73.31    5.63
   1  -5   8   68.08    6.63
  -2   5  -8  255.28    8.64
  -2   5  -8  236.39   12.22
   2  -5   8  273.60   15.21
   2  -5   8  242.40    8.78
   2  -5   8  249.63   12.48
  -3   5  -8   82.81    5.10
  -3   5  -8   74.54    6.48
   3  -5   8   82.96    6.42
  -4   5  -8    9.03    2.90
  -4   5  -8    7.79    2.70
   4  -5   8    2.74    4.96
   4  -5   8    8.57    3.29
  -5   5  -8   13.65    3.57
   5  -5   8   14.35    5.19
   5  -5   8   10.31    3.39
  -6   5  -8   30.08    5.48
  -6   5  -8   19.60    4.83
   6  -5   8   20.41    7.39
   6  -5   8   17.36    4.04
  -7   5  -8    9.60    5.11
  -7   5  -8   18.61    4.97
   7  -5   8   13.49    4.20
   7  -5   8    9.72    9.38
  -8   5  -8    3.02    4.65
  -8   5  -8    5.56    7.12
   8  -5   8    1.33    9.42
  -9   5  -8   -3.91    5.82
  -9   5  -8   16.32    7.92
   9  -5   8    3.48   10.88
   8   4  -8   35.63   11.31
  -8  -4   8   28.25   15.57
   7   4  -8   26.94    9.73
  -7  -4   8   55.75   12.50
  -7  -4   8   33.03    6.71
   6   4  -8   12.42    6.69
   6   4  -8    8.74    3.23
  -6  -4   8   12.55    8.07
  -6  -4   8   11.53    4.74
   5   4  -8   70.36    5.91
   5   4  -8   75.04    9.02
  -5  -4   8   99.71   11.89
  -5  -4   8   74.00    6.53
   4   4  -8   91.64    6.15
   4   4  -8   86.48    7.82
  -4  -4   8   96.79    5.88
  -4  -4   8   96.74   10.43
   3   4  -8  228.14    9.95
   3   4  -8  204.60   11.79
  -3  -4   8  182.35   12.89
  -3  -4   8  215.63    7.91
   2   4  -8   71.53    5.37
   2   4  -8   83.21    6.58
  -2  -4   8   70.94    8.08
  -2  -4   8   72.50    2.81
  -2  -4   8   72.36    2.83
   1   4  -8   88.60    6.05
   1   4  -8   88.14    6.54
  -1  -4   8   81.78    7.46
   0   4  -8  430.99   16.61
   0   4  -8  450.67   16.67
   0  -4   8  447.86   18.96
  -1   4  -8  232.61   10.81
  -1   4  -8  208.88    7.62
   1  -4   8  228.76    7.21
   1  -4   8  229.48   13.52
   1  -4   8  244.81   12.18
  -2   4  -8  374.44   12.20
  -2   4  -8  367.22   14.91
   2  -4   8  380.22   15.60
   2  -4   8  359.09   17.66
  -3   4  -8   -0.35    2.30
  -3   4  -8    0.48    2.26
   3  -4   8    2.29    2.71
   3  -4   8    3.62    3.92
  -4   4  -8  121.46    7.44
   4  -4   8  120.61    9.56
   4  -4   8  133.16    7.90
  -5   4  -8  155.88    8.82
   5  -4   8  130.67    8.38
   5  -4   8  119.49   10.72
  -6   4  -8   11.76    4.77
  -6   4  -8   19.39    4.04
   6  -4   8   26.87    7.75
   6  -4   8   18.48    4.56
  -7   4  -8   49.44    8.13
  -7   4  -8   43.49    6.20
   7  -4   8   59.02   11.58
   7  -4   8   53.88    7.17
  -8   4  -8    7.86    6.97
  -8   4  -8    4.06    5.15
   8  -4   8   10.85    6.37
   8  -4   8   -5.43    9.62
  -9   4  -8   -2.18    8.79
   9   3  -8   22.53    8.62
  -9  -3   8   15.25    8.86
  -9  -3   8    2.54   16.26
   8   3  -8    7.12    6.59
  -8  -3   8  -12.14   10.46
  -8  -3   8    8.13    6.69
   7   3  -8   21.66    7.39
  -7  -3   8   15.45    8.97
   6   3  -8   22.56    3.78
   6   3  -8   23.07    6.08
  -6  -3   8   20.57    4.87
  -6  -3   8   30.93    7.37
   5   3  -8   34.63    4.21
   5   3  -8   35.58    5.97
  -5  -3   8   22.61    5.96
  -5  -3   8   26.33    4.57
   4   3  -8   78.48    6.77
   4   3  -8   84.24    5.71
  -4  -3   8   77.02    8.58
  -4  -3   8   67.55    4.85
   3   3  -8    4.37    3.08
   3   3  -8    6.52    2.56
   3   3  -8    6.25    2.10
  -3  -3   8    9.11    1.96
   2   3  -8  134.59    4.55
   2   3  -8  139.90    7.71
   2   3  -8  136.83    7.75
  -2  -3   8  133.38    9.60
  -2  -3   8  133.66    4.42
   1   3  -8   94.56    6.39
   1   3  -8   98.31    6.37
  -1  -3   8   95.84    8.02
   0   3  -8  507.75   17.98
   0   3  -8  486.16   17.33
   0   3  -8  493.17   13.15
   0   3  -8  502.91   13.05
   0  -3   8  488.91   19.67
  -1   3  -8  297.47    9.71
  -1   3  -8  284.30    9.31
  -1   3  -8  289.82   12.35
   1  -3   8  301.34   14.36
   1  -3   8  286.50   13.38
  -2   3  -8   68.79    5.42
  -2   3  -8   73.79    4.66
   2  -3   8   63.36    6.47
   2  -3   8   72.86    5.73
  -3   3  -8   49.04    4.74
  -3   3  -8   53.40    5.02
   3  -3   8   60.55    7.07
   3  -3   8   55.33    5.40
  -4   3  -8   23.44    3.79
   4  -3   8   24.45    4.47
  -5   3  -8   71.21    6.92
   5  -3   8   85.79    8.74
   5  -3   8   82.53    6.75
  -6   3  -8   20.70    4.08
  -6   3  -8   20.02    4.83
   6  -3   8   34.64    8.53
   6  -3   8   29.03    6.32
   7  -3   8    8.52    7.58
  -8   3  -8    8.86    7.05
  -8   3  -8    5.75    4.62
   8  -3   8   -7.71    6.37
   8  -3   8    8.31    9.10
  -9   3  -8   10.28    8.63
   9  -3   8    7.52   13.59
 -10  -2   8   25.11   36.33
   9   2  -8   21.20    8.49
  -9  -2   8   15.63    8.61
  -9  -2   8   -4.00   12.30
   8   2  -8   17.11    6.89
  -8  -2   8   14.19    9.72
  -8  -2   8   15.12    6.18
   7   2  -8   54.62    5.79
   7   2  -8   63.68    8.38
  -7  -2   8   70.57   12.14
  -7  -2   8   43.15    7.34
   6   2  -8   46.97    6.32
   6   2  -8   62.17    5.37
  -6  -2   8   60.47    6.40
  -6  -2   8   52.26    9.68
   5   2  -8  184.93    9.26
   5   2  -8  172.73   10.88
  -5  -2   8  197.51    9.07
  -5  -2   8  185.44   13.53
   4   2  -8  218.85   10.28
   4   2  -8  221.00   11.46
  -4  -2   8  236.89    9.36
   3   2  -8   13.88    2.96
   3   2  -8   17.79    2.99
  -3  -2   8   15.22    2.25
  -3  -2   8   14.35    3.76
   2   2  -8  553.62   19.39
   2   2  -8  563.14   15.62
   2   2  -8  538.74   18.79
  -2  -2   8  585.17   22.81
  -2  -2   8  573.42   15.63
   1   2  -8  373.14   13.79
   1   2  -8  365.14   11.01
   1   2  -8  382.36   10.78
   1   2  -8  381.26   14.56
  -1  -2   8  379.83   16.46
   0   2  -8  721.27   20.22
   0   2  -8  725.02   23.41
   0   2  -8  724.01   19.96
   0  -2   8  722.62   24.97
   0  -2   8  724.47   25.45
  -1   2  -8  127.64    7.31
  -1   2  -8  123.00    5.99
   1  -2   8  126.24    7.88
   1  -2   8  131.63    8.40
  -2   2  -8  150.89    7.97
  -2   2  -8  145.88    7.35
   2  -2   8  150.97    9.38
   2  -2   8  142.55    8.66
  -3   2  -8  304.03   12.78
  -3   2  -8  289.79   12.35
   3  -2   8  290.62   13.47
   3  -2   8  277.37   14.21
  -4   2  -8   77.79    5.91
   4  -2   8   72.63    6.71
   4  -2   8   75.45    8.86
  -5   2  -8  151.75   10.16
  -5   2  -8  160.59    8.68
   5  -2   8  147.71   11.34
  -6   2  -8   25.25    4.56
  -6   2  -8   23.45    6.49
   6  -2   8    1.08    6.23
   6  -2   8   14.55    5.25
  -7   2  -8   31.51    7.67
   7  -2   8   43.68    9.62
   7  -2   8   44.28    8.76
  -8   2  -8   12.96    8.55
   8  -2   8   14.41   11.11
   8  -2   8   33.03    8.44
  -9   2  -8   26.77    9.30
  10   1  -8   -5.57    9.23
 -10  -1   8    1.33   14.85
 -10  -1   8   -3.69    8.61
   9   1  -8    5.86    6.47
  -9  -1   8   10.14    6.29
  -9  -1   8   31.12   12.02
   8   1  -8   10.17    4.03
   8   1  -8    7.82    5.73
  -8  -1   8   19.37    5.41
  -8  -1   8   12.13    7.82
   7   1  -8    5.03    3.53
   7   1  -8   -8.72    5.17
  -7  -1   8    1.91    6.31
  -7  -1   8    1.71    3.91
   6   1  -8   19.92    3.48
   6   1  -8   24.90    5.63
  -6  -1   8   23.02    4.66
   5   1  -8   20.18    4.25
   5   1  -8   24.79    4.48
  -5  -1   8   30.74    7.42
  -5  -1   8   19.75    3.47
   4   1  -8   27.67    4.16
   4   1  -8   31.67    3.99
  -4  -1   8   27.98    3.37
  -4  -1   8   30.76    6.44
   3   1  -8  256.00   10.94
   3   1  -8  259.24   11.66
  -3  -1   8  263.18    9.42
  -3  -1   8  256.66   13.72
   2   1  -8  384.73   14.98
   2   1  -8  395.94   13.75
  -2  -1   8  395.44   12.38
  -2  -1   8  393.00   17.35
   1   1  -8  423.69   14.04
   1   1  -8  433.09   15.99
  -1  -1   8  445.64   13.46
  -1  -1   8  402.90   17.33
   0   1  -8   88.29    5.77
   0   1  -8   85.45    4.90
   0  -1   8   78.91    5.99
   0  -1   8   75.98    6.52
  -1   1  -8   94.37    5.68
  -1   1  -8   88.84    5.89
   1  -1   8  105.03    7.39
   1  -1   8   97.81    6.79
  -2   1  -8   97.04    6.46
  -2   1  -8   95.85    6.40
   2  -1   8   88.94    7.38
   2  -1   8   84.09    7.00
  -3   1  -8  154.37    8.14
  -3   1  -8  152.10    9.09
   3  -1   8  165.30   10.19
   3  -1   8  158.99    9.91
  -4   1  -8  140.52    7.84
  -4   1  -8  138.73    9.06
   4  -1   8  143.21   11.34
   4  -1   8  141.40   10.40
  -5   1  -8    9.79    4.11
  -5   1  -8    6.23    3.26
   5  -1   8   10.75    5.35
   5  -1   8    0.72    4.29
  -6   1  -8   16.33    5.56
  -6   1  -8   12.66    3.69
   6  -1   8   10.19    5.35
   6  -1   8   15.41    5.84
  -7   1  -8   -0.32    5.95
   7  -1   8   16.68    8.30
   7  -1   8   -7.63    7.29
  -8   1  -8   16.33    9.00
   8  -1   8    1.51    8.49
   8  -1   8    7.42   10.36
  10   0  -8    3.33   10.24
 -10   0   8  -10.67   12.17
 -10   0   8   -4.48    7.95
   9   0  -8   17.35    5.23
   9   0  -8   14.89    7.81
  -9   0   8   -7.43    9.21
  -9   0   8   -0.06    6.18
   8   0  -8   31.92    7.35
  -8   0   8   41.30    9.47
  -8   0   8   38.28    6.86
   7   0  -8   60.51    8.32
   7   0  -8   56.72    6.36
  -7   0   8   45.69    9.45
  -7   0   8   77.22    6.97
   6   0  -8  313.82   13.86
   6   0  -8  298.47   14.59
  -6   0   8  301.50   13.09
  -6   0   8  319.31   16.70
   5   0  -8   23.59    4.29
   5   0  -8   25.66    4.16
  -5   0   8   19.77    5.53
  -5   0   8   24.36    3.54
   4   0  -8  284.68   12.90
   4   0  -8  285.88   11.89
  -4   0   8  287.54   11.21
  -4   0   8  297.88   15.08
   3   0  -8  446.12   14.92
   3   0  -8  436.61   16.98
  -3   0   8  448.70   14.59
  -3   0   8  435.15   18.82
   2   0  -8  597.92   18.08
   2   0  -8  591.47   21.00
  -2   0   8  608.73   22.75
  -2   0   8  629.61   18.68
   1   0  -8  823.48   26.63
  -1   0   8  834.71   28.38
  -1   0   8  870.38   24.81
  -1   0   8  842.08   24.81
  -1   0   8  828.86   24.92
   0   0  -8    3.06    1.94
   0   0   8    3.27    2.35
   0   0   8    2.95    2.89
  -1   0  -8  373.95   14.73
  -1   0  -8  381.46   14.48
   1   0   8  386.21   14.26
   1   0   8  378.80   16.50
  -2   0  -8  130.48    8.12
  -2   0  -8  127.37    7.25
   2   0   8  118.03    7.75
   2   0   8  119.99    8.37
  -3   0  -8  339.59   15.28
  -3   0  -8  356.55   13.73
   3   0   8  352.17   15.72
   3   0   8  333.04   16.14
  -4   0  -8   44.65    4.33
  -4   0  -8   36.54    6.72
   4   0   8   26.04    5.77
  -5   0  -8   38.99    8.09
  -5   0  -8   35.30    4.77
   5   0   8   46.20    8.53
   5   0   8   46.72    8.54
  -6   0  -8   62.93    9.02
   6   0   8   59.17   11.19
   6   0   8   38.18    8.90
  -7   0  -8  -12.32    7.32
   7   0   8   13.97    9.66
   7   0   8   10.10    8.33
  -8   0  -8    1.42    8.76
   8   0   8   13.79   10.19
   8   0   8   39.99   12.50
  11  -1  -8   13.44   10.91
 -11   1   8   -7.13   15.79
 -11   1   8   36.43   13.99
  10  -1  -8    9.31    7.57
 -10   1   8   14.40    7.76
 -10   1   8   24.39   11.40
   9  -1  -8    3.12    4.66
   9  -1  -8    1.42    7.18
  -9   1   8    3.14    8.55
  -9   1   8    0.92    6.14
   8  -1  -8   -0.63    3.91
   8  -1  -8    2.04    5.34
  -8   1   8   -8.10    6.51
  -8   1   8    3.78    4.69
   7  -1  -8    8.49    4.56
   7  -1  -8    1.50    3.40
  -7   1   8    1.49    3.92
  -7   1   8   10.79    5.22
   6  -1  -8   19.17    4.68
  -6   1   8   10.19    4.62
  -6   1   8   23.43    4.44
   5  -1  -8  130.04    7.54
   5  -1  -8  130.45    8.48
  -5   1   8  124.78    7.68
  -5   1   8  134.28    9.77
   4  -1  -8  105.43    6.12
   4  -1  -8  112.78    7.54
  -4   1   8  106.20    6.24
  -4   1   8  110.98    8.53
   3  -1  -8  132.65    5.94
   3  -1  -8  134.60    8.11
  -3   1   8  125.68    6.73
  -3   1   8  142.12    9.35
   2  -1  -8   94.14    6.58
   2  -1  -8   92.62    4.02
  -2   1   8   88.27    4.16
  -2   1   8   88.31    7.06
  -2   1   8   89.19    5.54
   1  -1  -8   98.39    6.73
  -1   1   8  108.50    4.71
  -1   1   8   92.41    4.09
  -1   1   8   93.48    7.18
  -1   1   8   99.01    5.94
   0  -1  -8  257.22   11.44
   0  -1  -8  238.27   11.06
   0   1   8  249.06    9.12
   0   1   8  241.68   12.56
   0   1   8  238.83    8.12
  -1  -1  -8   81.62    6.17
  -1  -1  -8   79.28    5.88
   1   1   8   82.52    7.49
   1   1   8   80.62    5.65
  -2  -1  -8  264.22   11.30
  -2  -1  -8  253.91   12.82
   2   1   8  261.86   11.77
   2   1   8  273.64   14.23
  -3  -1  -8    9.95    2.83
  -3  -1  -8   13.16    3.90
   3   1   8   11.11    4.35
   3   1   8    9.94    4.68
  -4  -1  -8   32.94    4.18
  -4  -1  -8   40.54    6.96
   4   1   8   31.32    6.34
   4   1   8   24.86    6.43
  -5  -1  -8   22.95    6.69
  -5  -1  -8   25.85    4.59
   5   1   8   22.61    7.01
   5   1   8   23.80    7.40
  -6  -1  -8    8.83    7.16
   6   1   8   18.41    8.60
   6   1   8   12.31    7.64
  -7  -1  -8   33.06    9.43
   7   1   8   12.41    9.77
   7   1   8   14.69    9.52
 -11   2   8    4.92   10.82
  10  -2  -8    1.53    8.26
  10  -2  -8    3.81    6.07
 -10   2   8   19.41    7.66
 -10   2   8    2.39    8.69
   9  -2  -8   29.81    7.70
   9  -2  -8   11.58    5.26
  -9   2   8   15.68    6.11
  -9   2   8   21.32    7.18
   8  -2  -8  100.44    9.86
   8  -2  -8   95.06    8.56
  -8   2   8  103.63   10.64
  -8   2   8   87.28    8.45
   7  -2  -8   53.56    6.58
   7  -2  -8   53.77    7.47
  -7   2   8   47.58    6.30
   6  -2  -8   41.00    5.31
   6  -2  -8   45.57    5.60
  -6   2   8   38.65    6.19
   5  -2  -8  119.38    6.99
  -5   2   8  114.37    7.57
  -5   2   8  109.33    8.28
   4  -2  -8  272.78   13.29
   4  -2  -8  261.92    9.71
  -4   2   8  270.33   13.48
  -4   2   8  251.87   11.14
   3  -2  -8  750.37   25.92
   3  -2  -8  759.79   20.04
  -3   2   8  762.68   24.00
  -3   2   8  746.30   26.31
  -3   2   8  721.27   20.71
   2  -2  -8  153.60    8.74
  -2   2   8  142.57    7.88
  -2   2   8  138.17    8.91
   1  -2  -8  287.51   12.63
  -1   2   8  288.98   12.37
  -1   2   8  267.46   13.46
   0  -2  -8  146.79    6.83
   0  -2  -8  157.56    8.74
   0  -2  -8  152.32    9.27
   0   2   8  149.63    6.03
  -1  -2  -8  286.33   13.50
  -1  -2  -8  289.78   12.32
   1   2   8  279.31   14.77
   1   2   8  280.21   10.94
  -2  -2  -8   28.07    4.04
  -2  -2  -8   39.78    5.16
   2   2   8   37.85    6.21
   2   2   8   37.95    4.73
  -3  -2  -8   17.49    3.13
  -3  -2  -8   10.75    4.28
   3   2   8   17.87    5.16
   3   2   8   13.07    4.25
  -4  -2  -8   62.54    5.60
  -4  -2  -8   68.33    9.32
   4   2   8   51.43    7.78
   4   2   8   74.66    9.98
  -5  -2  -8   35.73    7.31
   5   2   8   42.85    8.48
   5   2   8   30.98    7.77
  -6  -2  -8   -0.92    8.46
   6   2   8   20.10    9.52
   6   2   8    2.91    9.40
  -7  -2  -8  -15.90    9.43
   7   2   8    3.05    9.93
  11  -3  -8   17.54   10.16
  11  -3  -8   -2.50    7.15
 -11   3   8   14.52    9.35
  10  -3  -8    6.79    7.56
  10  -3  -8   -2.20    5.81
 -10   3   8    4.82    7.12
 -10   3   8    1.20    7.51
   9  -3  -8   -2.22    5.30
   9  -3  -8   -9.35    5.86
  -9   3   8    6.49    6.24
  -9   3   8   -4.82    5.47
   8  -3  -8    1.19    4.93
   8  -3  -8    5.03    4.49
  -8   3   8    0.00    4.61
   7  -3  -8   51.13    7.03
   7  -3  -8   38.86    6.18
  -7   3   8   42.31    6.85
  -7   3   8   36.46    5.37
   6  -3  -8   41.32    6.17
   6  -3  -8   48.20    5.85
  -6   3   8   45.99    5.49
  -6   3   8   39.54    5.94
   5  -3  -8   38.71    4.25
   5  -3  -8   35.05    5.60
  -5   3   8   29.86    4.28
  -5   3   8   43.63    5.80
   4  -3  -8   40.07    3.10
   4  -3  -8   40.33    5.44
  -4   3   8   54.36    5.98
  -4   3   8   45.39    4.54
   3  -3  -8   54.59    7.39
  -3   3   8   47.08    5.95
  -3   3   8   49.22    5.05
   2  -3  -8  284.03   13.43
  -2   3   8  290.52   13.35
  -2   3   8  295.80   14.43
   1  -3  -8  138.91    8.29
  -1   3   8  121.46    8.86
  -1   3   8  115.72   10.37
   0  -3  -8   97.01    6.94
   0  -3  -8   87.15    5.51
   0  -3  -8   89.75    7.32
   0   3   8  100.91    8.73
   0   3   8   97.71    4.18
  -1  -3  -8   31.20    4.38
  -1  -3  -8   25.81    4.68
   1   3   8   28.03    5.42
   1   3   8   23.32    3.76
  -2  -3  -8   10.97    4.21
  -2  -3  -8   10.38    2.99
   2   3   8    6.97    3.61
   2   3   8    0.28    4.82
  -3  -3  -8   32.43    6.75
  -3  -3  -8   32.22    4.84
   3   3   8   39.82    8.44
   3   3   8   49.61    6.89
  -4  -3  -8    0.36    5.74
   4   3   8   -5.90    6.06
   4   3   8   -0.20    6.08
   5   3   8   43.62    9.71
   5   3   8   37.08    7.82
  -6  -3  -8    1.59    7.85
   6   3   8   -2.20   10.63
   6   3   8    3.59   10.10
  11  -4  -8   11.12    9.49
 -11   4   8    0.14   14.50
  10  -4  -8   18.02    5.81
  10  -4  -8   19.20    7.45
 -10   4   8   18.35    7.73
   9  -4  -8   23.46    6.41
   9  -4  -8   12.95    7.03
  -9   4   8   21.96    6.72
  -9   4   8   23.91    6.68
   8  -4  -8    8.22    4.01
   8  -4  -8    1.05    5.36
  -8   4   8    9.76    4.74
  -8   4   8    9.21    5.26
   7  -4  -8   20.60    5.15
  -7   4   8   19.05    5.23
  -7   4   8   21.15    4.91
   6  -4  -8   25.90    5.75
   6  -4  -8   26.77    4.74
  -6   4   8   30.81    5.57
  -6   4   8   27.45    5.06
   5  -4  -8  261.76   14.13
   5  -4  -8  270.25    9.87
  -5   4   8  291.78   14.11
  -5   4   8  262.43   12.94
   4  -4  -8  117.97    9.16
  -4   4   8  131.03    8.69
  -4   4   8  141.64    9.22
   3  -4  -8   37.58    5.50
  -3   4   8   32.04    5.49
   2  -4  -8   83.58    7.29
  -2   4   8   84.32    8.05
  -2   4   8   89.55    7.01
  -1   4   8  109.62    8.63
  -1   4   8   92.42    7.19
   0  -4  -8  123.25    9.43
   0  -4  -8  132.81    9.37
   0  -4  -8  142.87    8.62
   0   4   8  156.78   10.80
   0   4   8  141.80    5.60
  -1  -4  -8   23.46    5.07
  -1  -4  -8   28.53    5.00
   1   4   8   28.02    4.22
   1   4   8   33.49    7.10
  -2  -4  -8   29.90    6.46
  -2  -4  -8   42.49    5.63
   2   4   8   32.57    7.37
   2   4   8   35.34    5.29
  -3  -4  -8   30.61    6.42
  -3  -4  -8   15.88    5.93
   3   4   8   32.65    8.92
  -4  -4  -8   13.91    7.19
   4   4   8   11.94    8.64
  -5  -4  -8   -2.22    8.07
   5   4   8   24.55    8.67
   5   4   8   11.18    9.45
  11  -5  -8   -0.42    7.33
  11  -5  -8   -7.94    9.28
 -11   5   8   19.30   10.59
  10  -5  -8   -1.25    6.57
  10  -5  -8   -8.00    7.61
 -10   5   8   -4.34    7.38
   9  -5  -8    6.12    5.79
   9  -5  -8    2.21    6.44
  -9   5   8   -1.24    6.08
  -9   5   8   -7.46    5.68
   8  -5  -8   18.80    5.21
  -8   5   8   28.83    6.02
  -8   5   8   24.60    5.50
   7  -5  -8    5.69    4.52
   7  -5  -8   15.12    4.49
  -7   5   8   10.02    4.18
  -7   5   8   12.76    5.12
   6  -5  -8    2.93    3.82
   6  -5  -8    5.57    3.37
  -6   5   8    7.30    3.91
  -6   5   8   16.67    4.54
   5  -5  -8    5.96    3.45
   5  -5  -8    5.30    4.06
   5  -5  -8    8.79    2.35
  -5   5   8    8.00    3.87
   4  -5  -8   99.12    8.77
  -4   5   8  108.78    7.95
  -4   5   8  111.35    8.80
   3  -5  -8  106.61    8.84
  -3   5   8  113.32    8.79
  -3   5   8  122.90    8.67
   2  -5  -8   25.05    5.26
  -2   5   8   21.40    5.12
  -2   5   8   26.48    5.05
   1  -5  -8    7.88    4.57
   1  -5  -8    5.54    3.25
  -1   5   8    4.36    4.23
   0  -5  -8   40.29    5.78
   0  -5  -8   53.62    7.30
   0   5   8   45.10    4.36
   0   5   8   50.23    8.29
  -1  -5  -8   27.90    6.77
  -1  -5  -8   23.87    6.19
   1   5   8   37.35    8.16
   1   5   8   43.55    5.38
  -2  -5  -8    9.66    4.21
  -2  -5  -8   19.98    6.52
   2   5   8   17.69    7.32
   2   5   8   20.52    7.51
  -3  -5  -8   16.43    7.54
   3   5   8   30.82    8.91
  -4  -5  -8    5.03    7.26
   4   5   8    2.87   10.79
  11  -6  -8   -0.22    9.67
  11  -6  -8   10.35    8.56
 -11   6   8   -0.73    8.28
  10  -6  -8    8.60    8.22
  10  -6  -8    3.54    6.90
 -10   6   8    2.76    6.50
   9  -6  -8    8.44    5.65
   9  -6  -8    2.49    7.05
  -9   6   8   31.31    8.86
   8  -6  -8   -4.70    5.17
   8  -6  -8   13.17    5.90
  -8   6   8    7.63    4.79
  -8   6   8   12.82    5.37
   7  -6  -8   35.28    6.99
   7  -6  -8   44.56    6.47
  -7   6   8   53.12    7.44
  -7   6   8   44.83    6.68
   6  -6  -8   50.12    8.01
   6  -6  -8   56.32    5.30
  -6   6   8   50.15    6.54
   5  -6  -8    8.89    3.99
  -5   6   8    3.74    4.08
  -5   6   8   -5.69    4.27
   4  -6  -8   14.22    4.55
  -4   6   8   17.48    5.07
  -4   6   8   22.34    4.69
   3  -6  -8   10.72    4.45
  -3   6   8   10.17    4.95
  -3   6   8    9.66    3.77
   2  -6  -8   88.99    9.06
  -2   6   8   98.48    9.22
  -2   6   8   81.30    8.04
   1  -6  -8   56.76    7.93
   1  -6  -8   48.43    6.76
  -1   6   8   44.22    8.14
   0  -6  -8   17.95    4.65
   0  -6  -8   12.65    6.58
   0   6   8   10.00    7.02
  -1  -6  -8   28.91    6.36
  -1  -6  -8   20.59    5.13
   1   6   8   44.65   10.87
  -2  -6  -8   15.23    6.77
   2   6   8   16.66    8.68
  -3  -6  -8   -3.98    8.20
   3   6   8    0.74    9.59
  11  -7  -8   -4.57    7.31
  11  -7  -8   16.21   10.05
 -11   7   8   -0.72    7.97
  10  -7  -8    4.48    6.36
  10  -7  -8   -3.96    8.19
 -10   7   8   10.51    8.90
   9  -7  -8    6.85    7.11
   9  -7  -8   -2.44    6.98
  -9   7   8    2.98    6.99
   8  -7  -8    9.17    6.85
  -8   7   8   -2.89    6.04
   7  -7  -8    3.16    5.13
  -7   7   8   -3.02    5.30
  -7   7   8   -4.90    4.55
   6  -7  -8   18.87    6.36
  -6   7   8   17.90    5.53
   5  -7  -8   50.11    7.26
  -5   7   8   37.20    7.60
   4  -7  -8   23.22    5.53
  -4   7   8   21.37    5.88
  -4   7   8   29.21    6.92
   3  -7  -8   -4.33    4.36
  -3   7   8   -1.15    4.05
  -3   7   8    7.94    6.28
   2  -7  -8   10.07    5.23
  -2   7   8   12.73    7.01
  -2   7   8   15.91    4.87
   1  -7  -8   26.01    5.73
  -1   7   8   31.91    9.24
   0  -7  -8   43.88    7.95
   0  -7  -8   58.71   10.03
  -1  -7  -8    6.12    7.56
   1   7   8    5.15   10.06
  -2  -7  -8    3.56    8.39
  11  -8  -8   10.53    8.03
 -11   8   8   13.28    9.79
  10  -8  -8   -8.84    7.55
 -10   8   8  -11.31    7.80
   9  -8  -8   12.53    6.86
  -9   8   8   -4.00    7.49
   8  -8  -8   17.20    7.31
  -8   8   8    7.73    6.87
   7  -8  -8    8.83    5.93
  -7   8   8   11.86    6.43
   6  -8  -8   -7.53    5.34
  -6   8   8   12.81    5.81
  -6   8   8   -8.36    5.96
   5  -8  -8   -5.88    5.00
  -5   8   8    5.05    5.30
  -5   8   8    6.78    6.41
   4  -8  -8   21.41    6.07
  -4   8   8   31.54    6.75
  -4   8   8   15.45    4.77
   3  -8  -8   31.17    7.26
  -3   8   8   42.26    8.43
   2  -8  -8   33.59    7.45
   2  -8  -8   26.97    8.64
  -2   8   8   43.64    9.10
   1  -8  -8    4.88    6.34
   1  -8  -8    0.13    6.03
  -1   8   8   13.32    8.70
   0  -8  -8    2.97    5.88
   0  -8  -8   24.08   10.88
   0   8   8   -1.06   16.15
  -1  -8  -8    3.27    7.94
   1   8   8   19.33   10.43
  10  -9  -8   -5.06    9.08
 -10   9   8    7.56    8.90
   9  -9  -8    9.03    8.20
  -9   9   8  -11.54    7.24
   8  -9  -8   -0.72    6.95
  -8   9   8    4.42    6.98
   7  -9  -8   10.88    7.51
  -7   9   8    4.67    6.60
  -7   9   8   19.82    6.64
   6  -9  -8   17.90    7.96
  -6   9   8    8.46    7.61
  -6   9   8   20.43    6.70
   5  -9  -8    0.52    6.59
  -5   9   8   12.58    7.91
  -5   9   8   11.26    7.18
   4  -9  -8   -5.39    6.33
  -4   9   8   -4.51    6.03
  -4   9   8   13.74    8.81
   3  -9  -8   15.89    7.60
  -3   9   8   15.65    9.48
  -3   9   8   11.60    7.36
   2  -9  -8   21.03    8.24
   2  -9  -8    4.30    9.10
  -2   9   8   18.15   10.21
   1  -9  -8   10.15    8.05
   1  -9  -8   10.84    7.00
  -1   9   8    6.26   11.22
   0   9   8   -1.98   10.31
   9 -10  -8    0.98    8.49
  -9  10   8    2.97    8.79
   8 -10  -8   -2.11    8.42
  -8  10   8   -6.73    8.52
   7 -10  -8  -14.96    8.94
  -7  10   8   -8.46    6.88
   6 -10  -8    3.42   13.02
  -6  10   8    5.69    7.62
  -6  10   8    0.31    8.63
   5 -10  -8   15.58    8.43
  -5  10   8   15.32    9.88
  -5  10   8    0.91    7.44
   4 -10  -8    2.79    8.19
  -4  10   8    3.89   10.48
   3 -10  -8   -5.72    9.21
   3 -10  -8  -15.80    8.21
  -3  10   8   -6.39    9.51
   2 -10  -8   -3.22    8.70
   2 -10  -8    2.14    9.26
  -3  13  -9    0.64    6.58
   3 -13   9   -1.17   10.94
   3 -13   9  -13.95   14.18
  -4  13  -9    5.78    7.00
   4 -13   9    7.69   13.42
  -5  13  -9   14.45    7.96
   5 -13   9   21.10   14.56
   0  12  -9    6.46    6.71
   0  12  -9    6.81   14.10
   0 -12   9    0.25   10.51
  -1  12  -9   -5.29    6.59
  -1  12  -9    1.39   12.30
   1 -12   9    3.09   10.14
  -2  12  -9   -3.59    6.87
   2 -12   9    9.07   14.26
   2 -12   9   20.36   11.12
  -3  12  -9   -5.79    6.42
   3 -12   9   14.38   10.13
  -4  12  -9    2.56    6.31
  -5  12  -9    5.23    7.56
   5 -12   9   22.14   14.38
  -6  12  -9    3.30    6.84
   6 -12   9  -14.84   12.51
  -7  12  -9   -6.27    6.94
   7 -12   9   -0.06   12.51
   2  11  -9    5.38   10.58
  -2 -11   9   11.26   12.06
   1  11  -9    1.51    5.76
   1  11  -9    1.77   10.23
   0  11  -9   22.13   10.74
   0  11  -9    4.18    5.82
   0 -11   9    2.33    8.79
  -1  11  -9    9.89    8.75
  -1  11  -9    7.93    6.34
   1 -11   9   22.92    9.42
  -2  11  -9   10.50    5.87
   2 -11   9   -2.50    8.15
   2 -11   9    9.39   10.01
  -3  11  -9   -2.26    5.03
   3 -11   9   12.27   10.58
  -4  11  -9   10.55    6.06
   4 -11   9    4.80    7.24
   4 -11   9   -6.10    9.64
  -5  11  -9   15.39    6.60
   5 -11   9   17.84   11.30
  -6  11  -9   -0.19    5.46
   6 -11   9   -1.91   10.89
  -7  11  -9   -1.18    6.02
   7 -11   9   -0.88   11.56
  -8  11  -9   -2.09    6.76
  -8  11  -9  -12.87    7.61
   8 -11   9   36.44   15.09
   3  10  -9   12.69   10.10
  -3 -10   9  -10.47   11.71
   2  10  -9    4.88    5.52
  -2 -10   9   -0.16    8.74
   1  10  -9    7.17    5.08
   1  10  -9   12.80    7.52
  -1 -10   9    4.35    7.65
   0  10  -9   -7.08    4.86
   0  10  -9    4.36    6.94
   0 -10   9   -1.73    7.81
  -1  10  -9    0.63    7.18
  -1  10  -9    1.82    4.56
   1 -10   9    6.94    7.00
  -2  10  -9   20.41    5.33
   2 -10   9   18.99    8.72
   2 -10   9   34.33    8.07
   3 -10   9   40.37   11.63
   3 -10   9   57.60   10.68
  -4  10  -9   -7.74    4.29
   4 -10   9    8.96    9.63
  -5  10  -9    1.54    4.64
   5 -10   9   -1.96    9.32
   5 -10   9   -3.23    9.89
  -6  10  -9    0.25    4.99
  -6  10  -9    2.23    4.98
   6 -10   9   18.81   10.35
  -7  10  -9    3.81    6.62
  -7  10  -9   17.49    6.30
   7 -10   9   17.25    9.63
  -8  10  -9    3.93    7.44
   8 -10   9    4.97   11.60
  -9  10  -9   -0.22    8.22
  -9  10  -9    6.03    8.27
   9 -10   9    3.41   12.51
   4   9  -9    9.57    9.96
  -4  -9   9   -8.00   11.85
   3   9  -9   -5.89    7.37
  -3  -9   9   -2.61    8.26
   2   9  -9   -0.51    4.70
   2   9  -9    6.99    8.00
  -2  -9   9    8.79    7.55
   1   9  -9   10.66    4.35
   1   9  -9   14.78    7.48
  -1  -9   9   15.25    6.52
   0   9  -9    7.92    6.02
   0   9  -9    7.96    4.21
   0  -9   9    7.35    5.94
  -1   9  -9   13.93    4.39
  -1   9  -9   19.96    6.26
   1  -9   9   15.65    6.15
  -2   9  -9    0.27    3.61
   2  -9   9   18.53    8.42
   2  -9   9    9.43    5.77
  -3   9  -9   14.53    4.20
  -3   9  -9   22.39    4.23
   3  -9   9   10.85    7.94
  -4   9  -9   33.27    6.01
  -4   9  -9   37.53    4.98
   4  -9   9   40.72    9.88
   4  -9   9   43.20    7.26
  -5   9  -9   18.61    4.59
  -5   9  -9   25.70    4.35
   5  -9   9   16.07    4.86
   5  -9   9   31.22    9.82
  -6   9  -9   -1.43    4.55
  -6   9  -9   -1.60    4.41
   6  -9   9  -11.71    7.60
  -7   9  -9   23.06    6.28
  -7   9  -9   14.26    6.65
   7  -9   9   25.37   10.72
  -8   9  -9    4.25    6.67
  -8   9  -9    6.28    6.68
   8  -9   9    5.67   13.06
  -9   9  -9    6.54   15.69
  -9   9  -9   -5.95    8.70
   9  -9   9   11.16   12.21
   5   8  -9   41.50   11.35
  -5  -8   9   10.07   12.63
   4   8  -9    3.43    8.34
  -4  -8   9    6.95   10.44
   3   8  -9    5.05    3.92
   3   8  -9    9.05    6.23
  -3  -8   9    0.24    7.83
   2   8  -9    6.62    4.30
   2   8  -9   19.50    6.58
  -2  -8   9   14.98    6.78
   1   8  -9   11.45    3.98
   1   8  -9   18.34    5.37
  -1  -8   9   11.16    6.66
   0   8  -9   86.35    9.03
   0   8  -9   83.35    7.16
   0  -8   9   79.64    9.18
  -1   8  -9   70.13    8.01
  -1   8  -9   58.91    7.32
   1  -8   9   63.67    8.34
  -2   8  -9   20.09    4.61
  -2   8  -9   18.62    2.90
   2  -8   9    6.06    6.42
   2  -8   9   13.14    5.49
  -3   8  -9    3.15    2.58
  -3   8  -9    6.26    3.55
   3  -8   9    1.92    4.31
   3  -8   9    5.04    7.09
  -4   8  -9   25.14    4.57
  -4   8  -9   17.44    4.51
   4  -8   9   25.22    5.69
   4  -8   9   26.39    8.41
  -5   8  -9   56.25    6.66
  -5   8  -9   66.77    6.31
   5  -8   9   52.35    9.89
   5  -8   9   67.03    7.24
  -6   8  -9    1.68    4.59
  -6   8  -9    7.38    4.35
   6  -8   9    1.53    7.97
  -7   8  -9    0.40    5.04
  -7   8  -9    0.03    5.56
   7  -8   9    9.56    9.09
  -8   8  -9   -3.36    6.54
   8  -8   9   -4.22   10.45
  -9   8  -9   16.28    8.14
  -9   8  -9    1.54    7.37
   9  -8   9   -4.58   12.93
   6   7  -9   20.39    9.75
  -6  -7   9    6.14   13.14
   5   7  -9    7.99    8.21
  -5  -7   9    5.88   10.19
   4   7  -9   15.64    7.60
   4   7  -9    3.53    6.02
  -4  -7   9   13.91    8.95
   3   7  -9   22.96    6.71
   3   7  -9   22.57    3.96
  -3  -7   9   25.40    7.65
   2   7  -9   14.22    4.05
   2   7  -9    6.43    5.14
  -2  -7   9    7.96    5.74
   1   7  -9    7.59    2.97
   1   7  -9   12.68    4.91
  -1  -7   9   10.51    5.19
   0   7  -9   23.71    5.39
   0   7  -9   23.75    4.28
   0  -7   9   19.34    6.38
  -1   7  -9   15.78    3.86
   1  -7   9   17.85    5.03
  -2   7  -9   84.63    7.34
  -2   7  -9   91.02    4.13
   2  -7   9   85.80    8.78
   2  -7   9   68.56   10.21
   2  -7   9   85.78    4.33
  -3   7  -9   61.73    4.43
  -3   7  -9   71.11    6.48
   3  -7   9   62.43    7.33
   3  -7   9   63.68    9.52
  -4   7  -9   22.50    3.68
  -4   7  -9   14.70    4.32
   4  -7   9   19.78    5.15
   4  -7   9   24.64    8.27
  -5   7  -9   19.41    4.32
  -5   7  -9   12.26    3.97
   5  -7   9   23.58    4.58
   5  -7   9   24.17    7.25
  -6   7  -9   18.52    4.49
  -6   7  -9   23.49    5.50
   6  -7   9   26.29    5.46
   6  -7   9   21.52    8.30
  -7   7  -9    2.93    6.05
  -7   7  -9    7.16    5.25
   7  -7   9   15.34    9.53
  -8   7  -9   16.15    5.89
  -8   7  -9    8.35    7.54
   8  -7   9   16.91    9.96
  -9   7  -9   -0.52    6.95
  -9   7  -9   -0.97    7.67
   9  -7   9    9.37   12.77
   7   6  -9   17.75    9.98
  -7  -6   9   30.70   17.12
   6   6  -9   41.95   10.37
  -6  -6   9   25.64   12.87
   5   6  -9   14.89    6.98
   5   6  -9    6.51    5.70
  -5  -6   9   15.60    9.51
   4   6  -9   60.45    5.74
   4   6  -9   44.88    8.29
  -4  -6   9   44.06    5.42
  -4  -6   9   53.04    9.53
   3   6  -9    5.83    3.20
   3   6  -9    1.36    4.47
  -3  -6   9    8.96    2.64
  -3  -6   9   14.89    6.33
   2   6  -9  126.31    9.50
  -2  -6   9   99.06   10.45
   1   6  -9  164.63   10.60
   1   6  -9  207.71   10.12
  -1  -6   9  179.27   13.06
   0   6  -9   16.00    4.22
   0   6  -9   11.83    3.09
   0  -6   9   11.97    4.11
  -1   6  -9   35.18    5.52
  -1   6  -9   27.81    4.20
   1  -6   9   34.21    5.69
  -2   6  -9   12.80    3.25
  -2   6  -9   17.83    2.23
   2  -6   9   15.19    5.60
   2  -6   9   13.41    2.32
   2  -6   9   13.59    4.21
  -3   6  -9  193.11   10.88
  -3   6  -9  198.69    8.25
   3  -6   9  197.72   14.03
   3  -6   9  201.38   10.97
  -4   6  -9   59.76    5.91
  -4   6  -9   56.30    5.10
   4  -6   9   42.21    7.55
   4  -6   9   49.01    6.17
  -5   6  -9    3.33    3.49
   5  -6   9    6.56    6.64
   5  -6   9    6.80    3.60
  -6   6  -9   15.43    4.64
  -6   6  -9   19.31    4.41
   6  -6   9   22.42    4.37
   6  -6   9    7.84    7.50
  -7   6  -9    6.33    5.80
  -7   6  -9    6.23    4.35
   7  -6   9   20.89    9.17
  -8   6  -9   46.47    8.02
  -8   6  -9   32.08    7.77
   8  -6   9   45.29   11.87
  -9   6  -9    7.85    8.46
   9  -6   9  -17.84   12.34
   8   5  -9   -3.10   11.82
  -8  -5   9    5.22   17.80
   7   5  -9    2.60   12.50
  -7  -5   9   -6.62    6.06
  -7  -5   9    2.32   11.75
   6   5  -9    5.77    7.87
  -6  -5   9   -0.63    4.88
  -6  -5   9    6.73    9.65
   5   5  -9   28.15    8.04
   5   5  -9   24.68    4.06
  -5  -5   9   32.24    5.26
  -5  -5   9   22.64    8.37
   4   5  -9    8.85    3.15
   4   5  -9    9.53    5.23
  -4  -5   9    5.52    5.89
  -4  -5   9   11.28    3.08
   3   5  -9    5.75    2.76
   3   5  -9   10.58    4.39
  -3  -5   9    6.42    4.66
  -3  -5   9    2.31    2.09
   2   5  -9   14.29    3.56
   2   5  -9   16.45    4.24
  -2  -5   9    9.39    4.82
   1   5  -9  108.01    8.08
   1   5  -9   98.78    7.03
  -1  -5   9   86.64    8.42
   0  -5   9  138.58   10.19
  -1   5  -9   65.87    5.58
   1  -5   9   59.36    8.20
   1  -5   9   70.54    7.28
  -2   5  -9   37.11    3.12
  -2   5  -9   47.55    5.09
   2  -5   9   39.88    5.52
  -3   5  -9   44.24    5.05
  -3   5  -9   35.35    3.85
   3  -5   9   41.38    5.28
   3  -5   9   40.20    6.48
  -4   5  -9  117.04    7.16
  -4   5  -9   98.51    7.55
   4  -5   9  104.35    7.83
   4  -5   9   97.64    9.71
  -5   5  -9   19.32    4.23
   5  -5   9   17.34    7.24
   5  -5   9   13.23    4.08
  -6   5  -9   19.72    4.66
   6  -5   9   19.40    7.50
   6  -5   9   24.18    4.69
  -7   5  -9   12.26    5.62
  -7   5  -9    8.92    4.72
   7  -5   9   -5.63    8.56
  -8   5  -9    9.98    5.36
  -8   5  -9   17.45    7.78
   8  -5   9   -0.86   10.84
  -9   5  -9   -6.67    9.18
   9  -5   9    6.95   12.67
   8   4  -9   23.62   12.15
  -8  -4   9   12.13    7.44
  -8  -4   9   14.16   14.95
   7   4  -9   12.20    9.18
  -7  -4   9   10.99   10.29
   6   4  -9   43.18    9.71
   6   4  -9   33.26    5.56
  -6  -4   9   40.96   10.89
  -6  -4   9   26.60    5.73
   5   4  -9   28.13    6.20
   5   4  -9   30.77    4.52
  -5  -4   9   26.76    4.70
  -5  -4   9   13.81    6.87
   4   4  -9   78.70    6.08
   4   4  -9   74.86    7.53
  -4  -4   9   74.78    5.06
  -4  -4   9   73.30    9.31
   3   4  -9  258.77    8.84
   3   4  -9  273.95   12.10
   3   4  -9  269.20   13.70
  -3  -4   9  272.25    8.68
  -3  -4   9  250.58   15.88
   2   4  -9  104.10    6.95
  -2  -4   9  100.16    9.37
   1   4  -9  152.16    8.83
   1   4  -9  154.77    8.63
  -1  -4   9  168.62   11.16
   0   4  -9   11.97    3.56
   0   4  -9   13.01    2.87
   0  -4   9   13.78    3.48
  -1   4  -9  446.71   12.75
  -1   4  -9  448.27   17.40
  -1   4  -9  456.46   12.90
   1  -4   9  443.11   20.03
   1  -4   9  468.01   19.25
  -2   4  -9  308.24   10.98
   2  -4   9  317.31   16.64
   2  -4   9  308.99   14.39
  -3   4  -9   30.80    3.70
  -3   4  -9   26.46    4.00
   3  -4   9   30.35    5.30
  -4   4  -9   67.09    5.84
  -4   4  -9   76.89    6.20
   4  -4   9   79.81    8.42
   4  -4   9   77.91    6.68
  -5   4  -9    4.81    3.61
   5  -4   9    7.57    6.02
   5  -4   9    7.27    3.85
  -6   4  -9   90.35    7.60
  -6   4  -9  101.91    8.26
   6  -4   9   94.84   11.92
   6  -4   9   95.57    8.67
  -7   4  -9   24.81    7.40
  -7   4  -9   17.38    4.81
   7  -4   9   29.56    5.79
   7  -4   9   36.37    9.35
  -8   4  -9    9.06    7.38
  -8   4  -9    9.80    5.28
   8  -4   9   -6.20    6.95
   8  -4   9   -3.47   10.67
  -9   4  -9   19.54    9.06
   9  -4   9   26.76   13.46
   9   3  -9   -4.69   14.26
  -9  -3   9   23.15    8.77
   8   3  -9    0.50    9.08
  -8  -3   9    0.45    6.31
  -8  -3   9   -6.38   12.01
   7   3  -9    5.04    3.73
   7   3  -9   17.79    7.02
  -7  -3   9   14.42    5.13
  -7  -3   9    9.20    9.18
   6   3  -9   15.66    5.16
   6   3  -9    4.05    3.28
  -6  -3   9    1.08    5.97
  -6  -3   9    3.97    3.99
   5   3  -9   -0.32    4.13
   5   3  -9   -4.34    2.86
  -5  -3   9    6.12    2.95
  -5  -3   9   -1.82    5.46
   4   3  -9    3.68    3.63
   4   3  -9    2.14    2.61
  -4  -3   9   -1.84    4.00
  -4  -3   9    5.30    2.26
   3   3  -9  115.46    7.54
   3   3  -9  107.70    5.09
   3   3  -9  115.22    7.99
  -3  -3   9  112.11    9.42
  -3  -3   9  111.44    4.87
   2   3  -9  278.72   12.45
   2   3  -9  308.35   13.00
  -2  -3   9  303.03   16.07
   1   3  -9   90.81    6.37
   1   3  -9   83.92    6.22
  -1  -3   9   97.43    8.30
   0   3  -9   34.75    2.27
   0   3  -9   28.10    3.96
   0   3  -9   28.79    3.80
   0   3  -9   38.84    2.28
   0  -3   9   31.85    5.45
  -1   3  -9   12.68    2.28
  -1   3  -9    7.44    2.31
   1  -3   9    9.60    4.22
   1  -3   9    5.92    2.83
  -2   3  -9  288.63   11.02
  -2   3  -9  297.66   12.96
   2  -3   9  279.71   14.34
   2  -3   9  275.57   13.33
  -3   3  -9  138.12    7.60
   3  -3   9  130.02    8.71
   3  -3   9  142.63   10.08
  -4   3  -9   27.17    4.66
  -4   3  -9   15.55    3.82
   4  -3   9   22.99    4.97
   4  -3   9   23.59    6.77
  -5   3  -9   20.06    5.08
  -5   3  -9   18.65    3.87
   5  -3   9   23.64    6.79
  -6   3  -9   70.96    7.02
  -6   3  -9   70.71    7.51
   6  -3   9   61.22   11.16
   6  -3   9   69.99    8.43
  -7   3  -9   15.79    7.29
  -7   3  -9   18.66    4.63
   7  -3   9   22.74    6.38
  -8   3  -9   12.20    7.85
   8  -3   9    5.27    7.24
   8  -3   9   20.33   10.16
  -9   3  -9   11.81   10.00
   9  -3   9  -17.03   13.33
   9   2  -9   22.52    8.79
  -9  -2   9   20.39   15.03
  -9  -2   9   21.69    7.87
   8   2  -9   27.24    7.97
  -8  -2   9   38.98   11.36
  -8  -2   9   39.02    6.80
   7   2  -9   40.35    7.89
   7   2  -9   41.79    5.11
  -7  -2   9   54.85    6.92
   6   2  -9   23.05    5.50
   6   2  -9   22.83    3.86
  -6  -2   9   15.19    5.67
  -6  -2   9   26.83    5.12
   5   2  -9  270.95   14.00
   5   2  -9  282.21   12.70
  -5  -2   9  300.75   11.70
  -5  -2   9  273.73   16.20
   4   2  -9  219.67   11.31
   4   2  -9  218.56   10.71
  -4  -2   9  208.19   13.19
  -4  -2   9  215.25    8.75
   3   2  -9  159.47    8.72
   3   2  -9  161.37    9.07
  -3  -2   9  154.51    6.31
   2   2  -9  111.83    4.70
   2   2  -9  127.64    7.10
   2   2  -9  117.30    7.35
  -2  -2   9  100.46    8.79
  -2  -2   9  110.11    4.68
   1   2  -9  248.21    8.40
   1   2  -9  245.77   11.49
   1   2  -9  258.41    8.26
   1   2  -9  251.79   10.59
  -1  -2   9  264.95   13.79
   0   2  -9  757.71   25.05
   0   2  -9  775.56   21.83
   0  -2   9  748.25   27.06
   0  -2   9  764.74   26.35
  -1   2  -9  286.10   10.68
  -1   2  -9  268.83   12.25
   1  -2   9  281.18   13.68
   1  -2   9  291.24   13.64
  -2   2  -9  159.96    8.83
  -2   2  -9  174.77    8.48
   2  -2   9  154.03    9.75
   2  -2   9  167.77    9.94
  -3   2  -9   36.18    4.32
  -3   2  -9   45.72    5.09
   3  -2   9   32.12    5.86
   3  -2   9   38.27    5.60
  -4   2  -9  133.97    9.68
  -4   2  -9  141.98    9.09
   4  -2   9  143.55   10.87
   4  -2   9  139.85   10.78
  -5   2  -9   99.80    7.70
  -5   2  -9   91.84    8.05
   5  -2   9   85.59    9.09
   5  -2   9   88.21   10.27
  -6   2  -9   16.22    4.30
  -6   2  -9   12.26    5.73
   6  -2   9   16.71    6.06
   6  -2   9   18.56    8.26
  -7   2  -9   13.63    4.30
  -7   2  -9   15.47    6.47
   7  -2   9   26.36    9.18
   7  -2   9    7.01    7.19
   8  -2   9   12.81   11.46
  10   1  -9    7.18    8.57
 -10  -1   9  -13.27    8.59
 -10  -1   9    3.48   15.83
   9   1  -9    0.61    7.61
  -9  -1   9   -6.66   11.60
  -9  -1   9    1.29    6.74
   8   1  -9   14.40    5.99
   8   1  -9   19.47    4.55
  -8  -1   9   15.20    5.62
  -8  -1   9    5.67    9.25
   7   1  -9    3.27    5.26
   7   1  -9   -3.09    4.63
  -7  -1   9   10.93    4.34
  -7  -1   9    0.11    6.60
   6   1  -9    6.61    4.28
   6   1  -9    3.50    3.59
  -6  -1   9    3.04    3.24
  -6  -1   9    3.87    4.74
   5   1  -9   32.19    4.49
   5   1  -9   36.37    7.74
  -5  -1   9   33.87    7.32
  -5  -1   9   38.12    4.43
   4   1  -9  173.46    9.44
   4   1  -9  167.55    9.33
  -4  -1   9  169.53    7.74
   3   1  -9  108.34    6.56
   3   1  -9  112.60    7.22
  -3  -1   9  110.24    5.46
  -3  -1   9  102.91    8.52
   2   1  -9   12.60    3.11
   2   1  -9   12.63    2.97
  -2  -1   9   10.46    2.12
  -2  -1   9   10.71    3.78
   1   1  -9   14.38    2.56
   1   1  -9    7.90    2.26
   1   1  -9    9.01    2.42
  -1  -1   9    8.91    4.06
   0   1  -9  247.89    9.80
   0   1  -9  240.90   11.13
   0  -1   9  230.26   12.27
   0  -1   9  231.82   11.13
  -1   1  -9  491.38   17.17
  -1   1  -9  506.96   18.24
   1  -1   9  481.10   18.18
   1  -1   9  480.33   19.66
  -2   1  -9   55.50    4.79
  -2   1  -9   54.35    5.46
   2  -1   9   45.82    5.95
   2  -1   9   55.74    6.35
  -3   1  -9   36.67    4.67
   3  -1   9   46.71    5.95
   3  -1   9   46.24    6.38
  -4   1  -9   60.76    7.05
  -4   1  -9   58.72    5.91
   4  -1   9   57.87    7.51
   4  -1   9   43.92    6.32
  -5   1  -9   57.80    5.90
  -5   1  -9   44.16    7.18
   5  -1   9   45.16    8.60
   5  -1   9   52.36    8.50
  -6   1  -9   30.87    7.45
  -6   1  -9   36.70    5.66
   6  -1   9   57.38   10.44
   6  -1   9   48.63    8.50
   7  -1   9   -2.78    9.70
   7  -1   9    4.34    7.79
  -8   1  -9   22.17    9.11
   8  -1   9   17.23   12.13
   8  -1   9   26.78    9.85
  10   0  -9   14.37   10.25
 -10   0   9   26.56    9.10
 -10   0   9    9.03   13.22
   9   0  -9   29.33    6.37
   9   0  -9   29.01    7.88
  -9   0   9   45.82    7.97
  -9   0   9   55.16   12.39
   8   0  -9   25.76    5.51
   8   0  -9   24.31    6.27
  -8   0   9   34.93    6.59
  -8   0   9   36.69    8.78
   7   0  -9  109.72    8.85
   7   0  -9  103.03    9.57
  -7   0   9  105.94    7.99
   6   0  -9  181.19   10.64
   6   0  -9  181.92   10.51
  -6   0   9  173.08    9.48
  -6   0   9  184.89   12.49
   5   0  -9   85.24    7.01
   5   0  -9   95.21   10.85
  -5   0   9   71.32    7.73
  -5   0   9   76.51    5.83
   4   0  -9  215.99   11.29
   4   0  -9  222.32   10.04
  -4   0   9  226.06    9.48
  -4   0   9  213.89   12.87
   3   0  -9   18.44    3.42
   3   0  -9   13.14    2.81
  -3   0   9   14.17    2.54
  -3   0   9   13.61    3.94
   2   0  -9  523.92   19.69
   2   0  -9  542.99   16.41
  -2   0   9  497.71   20.71
  -2   0   9  532.33   17.13
   1   0  -9  390.85   15.55
  -1   0   9  377.02   17.01
  -1   0   9  370.65   13.88
  -1   0   9  391.32   13.76
   0   0  -9  263.82   11.34
   0   0  -9  256.16   11.83
   0   0   9  261.57   13.08
   0   0   9  259.66   10.71
  -1   0  -9  185.63    9.47
  -1   0  -9  187.29    9.80
   1   0   9  177.92    9.17
  -2   0  -9   84.02    5.94
  -2   0  -9   96.40    7.08
   2   0   9   83.77    6.85
   2   0   9   74.21    8.05
  -3   0  -9  237.83   12.67
  -3   0  -9  235.14   11.15
   3   0   9  231.40   13.65
   3   0   9  237.92   12.79
  -4   0  -9  105.10    9.19
  -4   0  -9  125.96    8.17
   4   0   9  126.96   10.97
   4   0   9  129.61   10.00
  -5   0  -9   44.46    8.24
  -5   0  -9   40.80    5.89
   5   0   9   56.67    9.35
   5   0   9   57.24    9.58
  -6   0  -9   16.15    7.73
   6   0   9    7.45    8.18
   6   0   9   35.66    9.90
  -7   0  -9   10.45    9.14
   7   0   9   31.34   10.40
  11  -1  -9    0.66   10.73
 -11   1   9  -23.72   18.70
  10  -1  -9   13.89    7.43
  10  -1  -9   17.55    9.61
 -10   1   9   21.00    7.76
   9  -1  -9    2.63    5.00
   9  -1  -9   -1.82    6.47
  -9   1   9   -4.77    6.15
  -9   1   9    3.39    8.38
   8  -1  -9   15.29    5.05
   8  -1  -9   13.74    6.37
  -8   1   9   16.40    5.56
  -8   1   9   17.38    7.57
   7  -1  -9   18.87    5.37
   7  -1  -9   12.23    3.98
  -7   1   9   17.66    6.53
  -7   1   9   18.48    4.67
   6  -1  -9   78.39    7.40
   6  -1  -9   78.52    6.91
  -6   1   9   92.09    7.09
  -6   1   9   79.54    8.11
   5  -1  -9   48.61    5.30
   5  -1  -9   66.62    5.82
  -5   1   9   62.91    5.53
   4  -1  -9    9.00    2.81
  -4   1   9    5.12    4.05
  -4   1   9    6.72    2.58
   3  -1  -9    3.96    2.50
   3  -1  -9    5.68    1.88
  -3   1   9    9.27    3.30
  -3   1   9   10.31    2.38
   2  -1  -9   89.63    6.70
  -2   1   9   87.35    4.36
  -2   1   9   82.87    7.24
  -2   1   9   99.68    5.24
  -2   1   9   88.36    5.72
   1  -1  -9  491.55   18.65
  -1   1   9  495.09   17.39
  -1   1   9  481.97   14.77
  -1   1   9  487.46   13.98
  -1   1   9  480.37   19.97
   0  -1  -9  238.55   11.60
   0  -1  -9  249.50   11.74
   0   1   9  248.08    9.56
   0   1   9  272.17    9.25
  -1  -1  -9    7.54    3.21
  -1  -1  -9    5.97    2.45
   1   1   9   10.44    3.31
   1   1   9    6.27    3.06
  -2  -1  -9   17.22    4.43
  -2  -1  -9   13.19    3.13
   2   1   9   10.84    3.83
   2   1   9   11.99    4.13
  -3  -1  -9   27.33    4.46
  -3  -1  -9   37.56    5.67
   3   1   9   38.77    7.28
   3   1   9   38.35    6.71
  -4  -1  -9  130.64    7.94
  -4  -1  -9  121.32   10.41
   4   1   9  117.11   10.35
   4   1   9  129.46   11.41
  -5  -1  -9   14.15    7.38
   5   1   9   21.83    7.02
   5   1   9   12.49    7.78
  -6  -1  -9    7.12    6.82
   6   1   9   20.89    8.95
   6   1   9   -9.87    7.97
  -7  -1  -9   22.18    9.62
   7   1   9    3.49   10.06
   7   1   9    8.90   12.08
  11  -2  -9   20.54   19.45
 -11   2   9    0.01   15.72
  10  -2  -9   11.67    5.81
  10  -2  -9   22.08    8.75
 -10   2   9    1.26    7.42
 -10   2   9   20.12    9.59
   9  -2  -9   23.94    6.73
   9  -2  -9    3.08    5.40
  -9   2   9   16.08    7.51
  -9   2   9   16.12    6.25
   8  -2  -9   43.63    7.42
  -8   2   9   46.40    7.98
  -8   2   9   43.85    7.94
   7  -2  -9   30.58    5.58
  -7   2   9   38.43    6.24
  -7   2   9   40.27    7.46
   6  -2  -9  130.96    8.30
   6  -2  -9  137.80    9.37
  -6   2   9  136.30    8.61
   5  -2  -9   33.26    4.93
   5  -2  -9   38.35    4.44
  -5   2   9   41.02    7.05
  -5   2   9   47.27    5.15
   4  -2  -9  182.26   10.72
   4  -2  -9  186.52    7.49
  -4   2   9  188.89    9.36
  -4   2   9  185.62   11.55
   3  -2  -9  294.25    9.09
   3  -2  -9  258.64   15.77
  -3   2   9  283.95   12.05
  -3   2   9  279.01   14.11
  -3   2   9  278.11    9.07
   2  -2  -9  161.50   11.41
  -2   2   9  162.27    8.75
   1  -2  -9  241.54   11.96
  -1   2   9  259.43   11.83
  -1   2   9  235.92   13.19
   0  -2  -9   -0.71    2.35
   0   2   9   -0.65    1.98
   0   2   9   -1.81    3.05
   0   2   9   -0.66    1.96
  -1  -2  -9  215.91   10.75
  -1  -2  -9  215.89   11.90
   1   2   9  221.34    9.48
   1   2   9  217.09   13.39
  -2  -2  -9  408.47   18.13
  -2  -2  -9  407.01   15.79
   2   2   9  395.24   19.28
   2   2   9  361.68   15.00
  -3  -2  -9   81.68    6.31
  -3  -2  -9   80.37    7.98
   3   2   9   73.87    7.28
   3   2   9   62.77   10.05
  -4  -2  -9   34.03    5.69
   4   2   9   44.99    7.88
   4   2   9   52.47   10.76
  -5  -2  -9   23.66    6.07
   5   2   9   36.27   10.21
   5   2   9   17.95    7.74
  -6  -2  -9   47.24   11.93
  11  -3  -9   19.29   10.09
 -11   3   9    9.90   15.12
  10  -3  -9    8.22    6.58
  10  -3  -9    3.12    8.55
 -10   3   9    9.42    6.75
 -10   3   9    3.35    7.78
   9  -3  -9   -6.52    6.92
   9  -3  -9   -0.86    5.83
  -9   3   9    0.75    7.05
  -9   3   9   -3.09    5.38
   8  -3  -9   13.44    5.84
   8  -3  -9   14.58    5.15
  -8   3   9   16.98    4.86
  -8   3   9   17.44    6.31
   7  -3  -9   55.47    7.27
   7  -3  -9   49.86    6.65
  -7   3   9   45.10    6.37
  -7   3   9   61.87    8.45
   6  -3  -9   29.38    5.33
   6  -3  -9   22.89    4.12
  -6   3   9   27.33    5.10
   5  -3  -9   30.12    3.97
   5  -3  -9   33.38    5.58
  -5   3   9   31.25    4.94
   4  -3  -9   28.45    2.30
   4  -3  -9   26.44    5.18
  -4   3   9   23.48    3.31
   3  -3  -9  144.12    9.13
  -3   3   9  121.08   10.83
  -3   3   9  122.46    9.08
   2  -3  -9  225.06   12.07
  -2   3   9  244.70   13.38
   1  -3  -9    7.84    3.39
   1  -3  -9    1.80    3.21
  -1   3   9    6.37    2.83
  -1   3   9    8.78    3.49
   0  -3  -9   44.87    5.28
   0   3   9   48.34    7.30
   0   3   9   41.23    2.86
  -1  -3  -9   23.27    4.28
  -1  -3  -9   10.35    4.75
   1   3   9   10.41    5.14
   1   3   9   16.39    3.14
  -2  -3  -9  148.78    8.99
  -2  -3  -9  176.01   11.38
   2   3   9  138.86   12.72
   2   3   9  126.62    8.27
  -3  -3  -9   69.31    6.01
  -3  -3  -9   51.31    8.05
   3   3   9   51.37   11.05
   3   3   9   56.68    7.53
  -4  -3  -9    8.55    5.77
   4   3   9  -12.37    7.46
   4   3   9    8.03    6.76
  -5  -3  -9    3.68    7.68
   5   3   9   14.00    8.66
   5   3   9   -1.55   10.09
  11  -4  -9    7.62   10.93
  11  -4  -9    6.55    7.35
 -11   4   9    0.76   12.99
  10  -4  -9   13.66    6.72
  10  -4  -9   13.19    8.44
 -10   4   9   12.78    7.95
 -10   4   9    4.82    7.30
   9  -4  -9    2.49    5.80
   9  -4  -9   20.28    7.28
  -9   4   9    5.87    6.40
  -9   4   9    1.62    6.15
   8  -4  -9   27.05    5.15
  -8   4   9   34.99    6.91
  -8   4   9   31.31    6.66
   7  -4  -9   37.01    6.40
   7  -4  -9   30.75    5.68
  -7   4   9   30.05    5.46
  -7   4   9   25.89    6.20
   6  -4  -9   32.54    5.35
   6  -4  -9   30.70    6.35
  -6   4   9   36.93    7.72
  -6   4   9   37.52    6.05
   5  -4  -9  135.16    5.93
   5  -4  -9  137.70    9.80
  -5   4   9  132.92   10.14
  -5   4   9  137.67    9.11
   4  -4  -9   68.29    7.99
  -4   4   9   73.46    7.67
  -4   4   9   66.77    6.32
   3  -4  -9  183.67   11.41
  -3   4   9  186.57   12.16
  -3   4   9  187.25   10.55
   2  -4  -9   24.96    4.67
  -2   4   9   27.51    4.71
  -2   4   9   25.12    5.79
   1  -4  -9  102.40    7.64
   1  -4  -9   83.21    7.81
  -1   4   9   97.05    8.96
   0  -4  -9  252.43   12.73
   0  -4  -9  282.32   15.09
   0   4   9  271.70   16.01
  -1  -4  -9   69.49    6.64
  -1  -4  -9   68.36    8.44
   1   4   9   43.49    8.74
   1   4   9   63.08    5.11
  -2  -4  -9   47.37    8.19
   2   4   9   63.55    6.67
   2   4   9   48.12    9.29
  -3  -4  -9   -7.70    6.58
   3   4   9   12.61    7.94
   4   4   9   25.58   11.69
  -5  -4  -9   20.28   10.26
   5   4   9   25.56   11.51
  11  -5  -9    7.90    9.22
  11  -5  -9   -6.19    8.09
 -11   5   9    4.91    8.29
  10  -5  -9   11.51    8.28
  10  -5  -9   -5.13    6.46
 -10   5   9   -0.91    6.83
   9  -5  -9   13.20    6.95
  -9   5   9   15.78    6.49
  -9   5   9    9.14    6.23
   8  -5  -9    9.79    4.98
   8  -5  -9    8.02    5.55
   7  -5  -9   17.29    5.32
  -7   5   9   27.21    6.26
  -7   5   9   19.02    5.76
   6  -5  -9   19.85    3.73
   6  -5  -9   22.13    4.73
  -6   5   9   12.79    4.92
  -6   5   9   16.36    4.58
   5  -5  -9   15.64    5.01
  -5   5   9   17.49    4.76
  -5   5   9   20.75    5.24
   4  -5  -9   73.07    7.93
  -4   5   9   73.67    6.89
  -4   5   9   83.40    8.64
   3  -5  -9   11.20    3.74
  -3   5   9   10.81    4.33
  -3   5   9    8.80    5.23
   2  -5  -9   32.90    5.42
  -2   5   9   30.39    6.01
  -2   5   9   36.54    6.97
   1  -5  -9   34.19    7.12
   1  -5  -9   38.77    6.46
  -1   5   9   36.43    7.39
   0  -5  -9  118.54    8.85
   0  -5  -9  116.86   10.29
   0   5   9  112.51   12.27
  -1  -5  -9   68.30    8.87
  -1  -5  -9   57.45    7.81
   1   5   9   72.35   11.63
  -2  -5  -9    1.35    7.57
  -2  -5  -9   -3.71    4.64
   2   5   9    1.77    7.24
  -4  -5  -9   -1.75    8.92
   4   5   9  -12.36   12.12
  11  -6  -9   -2.73   12.48
  11  -6  -9    2.75    9.96
 -11   6   9   15.23    9.43
  10  -6  -9   11.71    8.60
  10  -6  -9    7.09    7.50
 -10   6   9    5.71    7.63
   9  -6  -9   14.32    7.06
   9  -6  -9    3.80    6.27
  -9   6   9   21.45    7.21
  -9   6   9   19.67    6.28
   8  -6  -9   13.43    6.81
  -8   6   9   16.42    6.82
  -8   6   9    6.32    5.63
   7  -6  -9   12.67    5.60
  -7   6   9   23.12    5.66
  -7   6   9   14.51    5.93
   6  -6  -9   16.16    6.23
  -6   6   9   36.13    7.37
  -6   6   9   26.27    6.29
   5  -6  -9   42.40    7.38
  -5   6   9   63.15    8.77
  -5   6   9   66.52    7.03
   4  -6  -9   29.04    6.83
  -4   6   9   44.90    6.36
  -4   6   9   43.84    7.63
   3  -6  -9   49.68    7.17
  -3   6   9   37.27    7.36
  -3   6   9   30.40    5.71
   2  -6  -9  102.95    9.46
  -2   6   9  105.57    9.88
  -2   6   9   91.03   10.28
   1  -6  -9   17.20    4.89
   1  -6  -9   20.44    6.86
  -1   6   9   21.11    6.67
   0  -6  -9   74.40    7.79
   0  -6  -9  103.33   10.56
   0   6   9   72.87   11.17
  -1  -6  -9    5.37    4.79
  -1  -6  -9   12.06    7.23
   1   6   9    9.91    8.46
  -2  -6  -9    7.74    7.47
   2   6   9   12.98   10.13
  -3  -6  -9   51.31   10.68
   3   6   9   48.71   13.55
  11  -7  -9   -0.16    9.17
 -11   7   9   -1.55    8.96
 -10   7   9    0.41    7.86
   9  -7  -9   15.45    6.68
  -9   7   9    9.62    7.69
   8  -7  -9   -4.32    6.96
  -8   7   9   14.30    6.65
  -8   7   9   -8.50    6.15
   7  -7  -9    4.43    5.49
  -7   7   9    2.34    5.18
   6  -7  -9   17.82    6.75
  -6   7   9   20.54    6.23
  -6   7   9   15.01    7.21
   5  -7  -9    8.55    6.36
  -5   7   9   -1.69    4.88
  -5   7   9    4.72    6.19
   4  -7  -9   19.42    5.69
  -4   7   9   12.90    6.14
  -4   7   9   20.22    6.48
   3  -7  -9   23.05    5.98
  -3   7   9   30.68    7.77
   2  -7  -9   30.15    7.46
   2  -7  -9   38.18    6.66
  -2   7   9   34.94    8.71
  -2   7   9   45.18    7.67
   1  -7  -9   40.51    9.41
   1  -7  -9   25.40    6.80
  -1   7   9   38.01   10.12
   0  -7  -9   15.88    5.90
   0  -7  -9    4.92    7.25
   0   7   9    1.85    8.53
  -1  -7  -9    5.14    7.31
   1   7   9   28.33   13.01
  -2  -7  -9    6.80    8.75
   2   7   9   48.52   14.86
  10  -8  -9   -1.50    8.47
 -10   8   9   13.74    8.75
   9  -8  -9    2.70    7.57
   8  -8  -9   15.85    7.68
  -8   8   9   -0.55    7.25
  -8   8   9    0.41    7.55
   7  -8  -9   -4.33    7.00
  -7   8   9   -1.89    6.05
  -7   8   9    2.89    6.46
   6  -8  -9   18.76    7.21
  -6   8   9    7.29    6.16
  -6   8   9   16.74    7.23
   5  -8  -9   11.94    6.52
  -5   8   9   19.49    6.21
  -5   8   9   13.04    7.19
   4  -8  -9   20.57    7.51
  -4   8   9   31.20    6.79
  -4   8   9   30.28    8.05
  -3   8   9   19.69    9.07
  -3   8   9   12.80    6.25
   2  -8  -9   38.06    8.57
   2  -8  -9   58.43    9.49
  -2   8   9   32.86   11.03
   1  -8  -9   23.65    9.68
   1  -8  -9   10.75    6.65
  -1   8   9   26.77   10.33
   0  -8  -9    2.89    8.43
   9  -9  -9    7.30    7.43
  -9   9   9    4.93    9.25
   8  -9  -9    8.36    6.90
  -8   9   9   -0.93    8.56
   7  -9  -9    4.19    8.18
   6  -9  -9  -12.44    7.96
  -6   9   9    6.56    7.51
  -6   9   9   -5.38    7.79
   5  -9  -9   -0.48    8.49
  -5   9   9    3.37    8.76
   4  -9  -9   11.36    7.52
  -4   9   9    3.54    9.21
  -4   9   9   40.67   13.19
   3  -9  -9    9.30    7.74
   3  -9  -9   10.00    8.41
  -3   9   9   -0.16    8.79
  -3   9   9    8.45    7.21
   2  -9  -9    5.24    7.77
   2  -9  -9    0.67    7.92
  -2   9   9    4.16   11.56
   1  -9  -9    1.06    9.40
   1  -9  -9    6.07    9.00
  -1   9   9   -8.74   12.32
   8 -10  -9    7.86    8.17
  -8  10   9   18.26    9.55
   7 -10  -9    7.75    8.12
  -7  10   9   -7.46    7.83
   6 -10  -9    5.34    9.00
  -6  10   9   -2.22    7.87
  -6  10   9    7.97    9.85
   5 -10  -9   -3.43    9.02
  -5  10   9   -8.33    7.23
  -5  10   9   -2.49   10.29
   4 -10  -9   18.64   12.03
  -4  10   9   -2.26    9.29
  -4  10   9   23.27   12.49
   0  12 -10   -0.97    7.29
   0 -12  10   -1.71   11.55
  -1  12 -10   -1.40    7.38
  -1  12 -10   20.39   13.93
   1 -12  10    0.93   10.51
  -2  12 -10    9.77    6.79
   2 -12  10   17.89   15.56
   2 -12  10   -2.37    9.93
   3 -12  10   29.04   10.90
   3 -12  10   18.87   14.44
   4 -12  10    0.98   12.01
  -5  12 -10   -0.76    6.31
   5 -12  10    4.61   11.34
  -6  12 -10    1.20    6.45
   6 -12  10   20.85   12.83
  -7  12 -10   -0.77    8.46
   7 -12  10   -9.32   12.71
   1  11 -10    2.43    6.11
   1  11 -10   -6.18    9.01
  -1 -11  10   -8.32   17.79
   0  11 -10   16.95    5.90
   0  11 -10    6.86   10.17
   0 -11  10   -9.58    8.73
  -1  11 -10   19.77   10.90
  -1  11 -10   -3.43    5.96
   1 -11  10   -4.32    8.75
  -2  11 -10   -2.21    5.84
   2 -11  10  -13.40    8.16
   2 -11  10    0.29   11.95
  -3  11 -10   14.15    5.92
   3 -11  10    6.86   12.57
   3 -11  10   23.32    9.30
  -4  11 -10   13.26    5.97
   4 -11  10   -2.57   10.42
   4 -11  10   14.93    7.51
  -5  11 -10   -1.65    5.50
   5 -11  10    8.39   10.01
  -6  11 -10   21.33   10.41
  -7  11 -10    7.76    6.67
   7 -11  10   -2.07   10.96
   8 -11  10   10.02   15.76
   3  10 -10   -8.62    9.44
  -3 -10  10   -3.48   11.33
   2  10 -10    8.01    9.89
   2  10 -10    5.05    5.96
  -2 -10  10   -9.77   17.16
   1  10 -10   -5.13    7.43
   1  10 -10    9.05    5.87
  -1 -10  10    3.20    7.67
   0  10 -10   16.75    9.48
   0  10 -10    3.47    5.41
   0 -10  10    2.03    7.61
  -1  10 -10   27.33    9.66
  -1  10 -10   11.44    4.90
   1 -10  10   20.81    7.97
  -2  10 -10   16.26    4.54
   2 -10  10   27.44   10.80
   2 -10  10   21.61    7.71
  -3  10 -10   -1.66    4.69
   3 -10  10   15.67    6.67
   3 -10  10  -11.61    8.71
  -4  10 -10    4.68    4.58
   4 -10  10   35.20   12.30
   4 -10  10   10.15    6.51
  -5  10 -10   10.91    5.29
   5 -10  10    4.92   10.31
  -6  10 -10   12.51    6.41
   6 -10  10    9.11    9.40
  -7  10 -10    9.25    6.56
  -7  10 -10  -10.66    6.83
  -8  10 -10    3.07    7.52
  -8  10 -10   -4.49    7.65
   8 -10  10  -15.34   12.94
   4   9 -10    2.37    9.53
  -4  -9  10    2.73   12.11
   3   9 -10   -5.65   14.52
   3   9 -10   -8.17    9.46
  -3  -9  10    9.97   10.16
   2   9 -10    1.92    4.79
   2   9 -10    1.44    6.96
  -2  -9  10    6.38    8.62
   1   9 -10   -3.14    4.49
   1   9 -10    1.95    5.53
  -1  -9  10  -10.09    6.15
   0   9 -10   11.10    5.70
   0   9 -10   -5.03    4.31
  -1   9 -10   21.54    8.05
  -1   9 -10   34.97    6.39
   1  -9  10   10.20    6.27
  -2   9 -10   31.51    6.03
   2  -9  10   52.93    9.90
   2  -9  10   26.94    9.69
  -3   9 -10    8.64    4.52
   3  -9  10   22.46    6.33
   3  -9  10    2.30    9.46
  -4   9 -10   -5.62    3.88
   4  -9  10    2.10    9.39
  -5   9 -10    1.43    4.23
   5  -9  10    8.88    5.38
   5  -9  10   -3.88    8.30
  -6   9 -10    2.39    4.97
  -6   9 -10   -2.06    5.01
   6  -9  10   -6.28    9.98
  -7   9 -10   18.59    7.42
  -7   9 -10   18.40    6.47
   7  -9  10   40.96   13.37
  -8   9 -10    8.38    7.25
  -8   9 -10    0.62    6.72
   8  -9  10   28.19   13.88
  -9   9 -10   18.12    9.03
  -9   9 -10   16.93    7.59
   9  -9  10    5.75   12.74
   5   8 -10   -4.49    9.22
  -5  -8  10   24.52   13.12
   4   8 -10    4.39    9.96
  -4  -8  10    5.28    9.12
   3   8 -10   17.67    5.17
  -3  -8  10   21.29    8.58
   2   8 -10    4.76    4.95
   2   8 -10    5.15    4.31
   1   8 -10   24.98    6.39
   1   8 -10   28.38    5.38
   0   8 -10   75.07    7.14
   0   8 -10   54.89    7.79
   0  -8  10   59.87    9.44
  -1   8 -10   23.01    6.84
  -1   8 -10   13.24    4.19
   1  -8  10   19.15    6.47
  -2   8 -10   43.22    5.98
   2  -8  10   53.21    8.47
   2  -8  10   40.09   10.66
  -3   8 -10   34.33    6.06
  -3   8 -10   51.26    4.07
   3  -8  10   47.58   10.83
  -4   8 -10   40.94    6.49
  -4   8 -10   28.88    4.63
   4  -8  10   45.80   10.52
   4  -8  10   30.37    6.14
  -5   8 -10   26.52    4.64
  -5   8 -10   35.55    6.15
   5  -8  10   27.56    9.99
   5  -8  10   39.54    7.37
  -6   8 -10   14.98    4.75
  -6   8 -10   -1.71    4.38
   6  -8  10    6.72    9.25
  -7   8 -10   13.40    6.16
  -7   8 -10   10.89    6.18
   7  -8  10   19.80   11.86
  -8   8 -10    2.27    6.74
  -8   8 -10    1.92    6.56
  -9   8 -10   -2.52    8.53
  -9   8 -10    5.91    7.87
   9  -8  10   -0.38   14.54
   6   7 -10   10.84   11.69
  -6  -7  10   12.29   12.95
   5   7 -10   -4.12    8.71
  -5  -7  10    5.15    9.42
   4   7 -10   13.77    4.35
   4   7 -10   13.61    7.72
  -4  -7  10   19.63    8.74
   3   7 -10   -3.52    6.08
   3   7 -10   -1.26    3.92
  -3  -7  10    1.81    6.62
   2   7 -10   -1.06    3.91
   2   7 -10    4.80    4.97
  -2  -7  10    0.18    5.60
   1   7 -10   13.90    4.77
   1   7 -10   18.74    4.11
  -1  -7  10   16.84    6.76
   0   7 -10   51.37    6.31
   0   7 -10   46.14    6.14
   0  -7  10   50.67    7.41
  -1   7 -10   41.52    6.00
  -1   7 -10   32.91    5.24
   1  -7  10   31.04    6.49
  -2   7 -10    9.57    3.78
   2  -7  10   10.86    5.18
   2  -7  10   14.52    6.63
  -3   7 -10   20.44    2.86
   3  -7  10   25.22    5.60
   3  -7  10   25.53    9.11
  -4   7 -10   15.03    3.13
  -4   7 -10   16.56    4.51
   4  -7  10   13.12    4.86
   4  -7  10   18.32    7.73
  -5   7 -10   38.03    5.95
  -5   7 -10   39.02    6.26
   5  -7  10   47.62    6.61
   5  -7  10   41.39    8.65
  -6   7 -10   26.58    5.50
   6  -7  10   37.93   10.21
   6  -7  10   19.44    4.70
  -7   7 -10   -5.06    6.07
  -7   7 -10   -1.46    5.54
   7  -7  10   11.34    9.71
  -8   7 -10   13.95    7.80
  -8   7 -10    6.53    6.30
   8  -7  10    8.19   10.07
  -9   7 -10   -0.30    7.75
  -9   7 -10    4.22    8.88
   9  -7  10   -8.42   13.71
   7   6 -10   -1.13   12.35
  -7  -6  10   11.43   15.33
   6   6 -10   -1.22    8.27
  -6  -6  10   16.67   11.60
   5   6 -10   43.26   10.14
   5   6 -10   39.51    5.98
  -5  -6  10   43.05   10.36
   4   6 -10   45.47    5.43
   4   6 -10   51.75    8.65
  -4  -6  10   32.90    9.07
   3   6 -10    1.44    4.58
  -3  -6  10   -0.77    4.88
   2   6 -10   68.64    8.07
   2   6 -10   93.61    7.16
  -2  -6  10   72.14    9.14
   1   6 -10   24.29    5.86
   1   6 -10   22.76    4.25
  -1  -6  10   20.66    6.37
   0   6 -10  187.35   10.41
   0   6 -10  190.15   11.49
   0  -6  10  195.54   12.94
  -1   6 -10  148.46   10.05
  -1   6 -10  138.52    8.76
   1  -6  10  130.33   10.38
   1  -6  10  137.20   12.43
  -2   6 -10   48.04    5.41
  -2   6 -10   35.60    2.76
   2  -6  10   38.19    6.13
   2  -6  10   40.58    9.19
   2  -6  10   33.48    3.23
  -3   6 -10   82.50    7.38
  -3   6 -10   93.70    5.21
   3  -6  10   80.91    7.90
   3  -6  10   76.97   10.51
  -4   6 -10   32.85    4.54
   4  -6  10   22.51    4.82
   4  -6  10   22.22    7.72
  -5   6 -10   54.54    7.09
  -5   6 -10   52.41    6.53
   5  -6  10   61.94   11.41
   5  -6  10   55.10    7.03
  -6   6 -10   21.78    5.78
  -6   6 -10   11.54    4.87
   6  -6  10    8.18    7.76
  -7   6 -10   13.37    4.78
  -7   6 -10   14.78    5.91
   7  -6  10   22.22    9.76
  -8   6 -10   23.09    6.40
  -8   6 -10   14.13    7.57
   8  -6  10   -6.27   11.50
  -9   6 -10    2.27   10.40
  -9   6 -10    4.52    7.19
   9  -6  10    4.51   15.68
   8   5 -10   27.44   12.41
  -8  -5  10    8.86   16.24
   7   5 -10   12.97   20.69
  -7  -5  10   11.80   14.00
   6   5 -10   10.93    8.86
  -6  -5  10   -1.82   10.20
   5   5 -10    7.48    5.77
   5   5 -10    1.38    3.87
  -5  -5  10   11.64    7.18
  -5  -5  10    2.10    3.74
   4   5 -10    1.72    5.36
   4   5 -10    5.25    3.36
  -4  -5  10    2.99    2.80
  -4  -5  10    5.74    5.84
   3   5 -10   40.09    5.18
   3   5 -10   55.21    7.18
  -3  -5  10   33.59    7.51
   2   5 -10   42.09    4.80
   2   5 -10   52.15    6.76
  -2  -5  10   40.53    7.69
   1   5 -10   98.63    7.18
   1   5 -10  113.62    8.15
  -1  -5  10  115.07    9.81
   0   5 -10    6.40    2.64
   0   5 -10    8.29    3.98
   0  -5  10    8.51    4.20
  -1   5 -10   62.10    5.75
   1  -5  10   64.91    7.64
   1  -5  10   54.20    7.04
  -2   5 -10   63.31    4.07
  -2   5 -10   67.07    6.34
   2  -5  10   65.13    7.84
   2  -5  10   67.00    7.09
  -3   5 -10  115.64    6.43
  -3   5 -10  109.37    7.88
   3  -5  10  116.66   11.24
   3  -5  10  118.14    9.19
  -4   5 -10   76.50    6.83
  -4   5 -10   70.32    6.24
   4  -5  10   79.63   10.30
   4  -5  10   76.56    7.25
  -5   5 -10    1.43    3.39
  -5   5 -10    8.81    4.00
   5  -5  10    4.92    4.31
   5  -5  10    3.14    7.23
  -6   5 -10   15.78    4.86
   6  -5  10    6.39    5.32
   6  -5  10    5.56    6.78
  -7   5 -10   13.99    6.07
  -7   5 -10   11.00    5.07
   7  -5  10    3.44    5.39
   7  -5  10    8.16    8.12
  -8   5 -10   21.57    7.94
  -8   5 -10   20.87    6.16
   8  -5  10   -5.65   11.09
  -9   5 -10    8.39    9.26
   9  -5  10    6.82   13.51
   8   4 -10    2.56   11.95
  -8  -4  10    5.01   26.28
   7   4 -10   24.44    8.75
  -7  -4  10   22.61    5.73
  -7  -4  10   16.01   10.93
   6   4 -10  106.42   10.64
  -6  -4  10   86.36    7.20
  -6  -4  10   60.46   11.68
   5   4 -10   18.71    5.57
   5   4 -10   21.99    5.36
  -5  -4  10   19.02    3.98
   4   4 -10   84.03    8.99
   4   4 -10   89.07    8.21
  -4  -4  10   96.75    5.32
  -4  -4  10   85.03   10.47
   3   4 -10   68.28    3.34
   3   4 -10   56.14    7.90
   3   4 -10   59.05    6.06
  -3  -4  10   64.64    8.09
  -3  -4  10   73.70    4.48
   2   4 -10  294.82   13.96
   2   4 -10  304.62   14.31
  -2  -4  10  320.02   17.60
   1   4 -10  364.06   15.73
   1   4 -10  385.39   15.91
  -1  -4  10  382.46   18.90
   0   4 -10   11.04    3.40
   0   4 -10   11.69    3.24
   0  -4  10    7.76    4.15
  -1   4 -10   93.44    7.16
  -1   4 -10  104.12    4.53
  -1   4 -10   93.04    4.46
   1  -4  10  112.48    9.80
   1  -4  10  108.91    8.78
  -2   4 -10   79.40    5.01
  -2   4 -10   88.17    6.87
   2  -4  10  102.09    8.18
   2  -4  10   92.84    8.28
  -3   4 -10  175.29   10.31
  -3   4 -10  195.44    9.19
   3  -4  10  185.25   13.11
   3  -4  10  194.82   11.27
  -4   4 -10  151.64    8.65
  -4   4 -10  144.75    8.87
   4  -4  10  132.51    9.34
   4  -4  10  133.86   11.57
  -5   4 -10    6.42    3.66
  -5   4 -10    8.41    4.18
   5  -4  10    4.91    4.84
   5  -4  10   15.23    6.80
  -6   4 -10   40.39    7.40
  -6   4 -10   37.75    6.15
   6  -4  10   33.97    9.41
   6  -4  10   37.08    7.13
  -7   4 -10   23.99    6.72
  -7   4 -10   12.65    5.13
   7  -4  10    6.10    6.63
   7  -4  10    0.80   10.30
  -8   4 -10    6.47    5.81
  -8   4 -10    7.58    7.73
   8  -4  10    1.96   12.59
   9   3 -10  -13.39   14.55
  -9  -3  10   -1.80    7.95
  -9  -3  10   30.25   17.31
   8   3 -10   -7.47    9.60
  -8  -3  10   16.41   12.84
  -8  -3  10   -3.70    6.35
   7   3 -10   -6.51    4.08
   7   3 -10    4.34    8.24
  -7  -3  10   11.00    8.44
  -7  -3  10   -0.44    4.97
   6   3 -10    9.32    5.60
   6   3 -10   -0.64    3.41
  -6  -3  10    7.68    3.86
  -6  -3  10    1.98    6.22
   5   3 -10   66.83    7.36
   5   3 -10   55.77    6.16
  -5  -3  10   55.38    4.98
  -5  -3  10   48.68    9.00
   4   3 -10   25.58    5.71
  -4  -3  10   22.32    3.24
  -4  -3  10   17.25    6.05
   3   3 -10   95.69    4.46
  -3  -3  10   88.98    4.85
  -3  -3  10   92.99    9.37
   2   3 -10   70.11    6.05
  -2  -3  10   61.59    8.00
   1   3 -10   55.90    5.20
   0   3 -10  276.45    8.92
   0   3 -10  269.67    8.61
   0  -3  10  275.86   14.74
   0  -3  10  262.94   14.40
  -1   3 -10  135.14    6.39
  -1   3 -10  125.06    8.07
   1  -3  10  139.84   10.07
   1  -3  10  126.07    9.10
  -2   3 -10  242.18   10.15
  -2   3 -10  234.69   11.68
   2  -3  10  229.21   13.55
   2  -3  10  250.72   13.04
  -3   3 -10   30.54    4.30
  -3   3 -10   24.45    4.07
  -4   3 -10   52.07    5.71
  -4   3 -10   56.51    5.98
   4  -3  10   44.95    6.72
   4  -3  10   47.52    7.97
  -5   3 -10    5.71    3.35
  -5   3 -10   -0.36    4.36
   5  -3  10    0.11    5.80
   5  -3  10    1.56    4.37
  -6   3 -10   35.17    5.72
  -6   3 -10   49.25    8.55
   6  -3  10   34.27    8.99
   6  -3  10   32.58    7.43
  -7   3 -10   36.45    7.86
  -7   3 -10   37.50    5.86
   7  -3  10   22.28    9.95
   7  -3  10   33.41    8.41
  -8   3 -10   12.31    9.72
   8  -3  10   -8.63    8.17
   8  -3  10    5.71   11.81
   9   2 -10   32.62   29.69
  -9  -2  10   22.58   14.97
  -9  -2  10   18.68    7.93
   8   2 -10   38.22    5.95
   8   2 -10   64.28   12.13
  -8  -2  10   52.68    8.14
  -8  -2  10   56.67   12.17
   7   2 -10   52.65    9.32
   7   2 -10   43.12    5.97
  -7  -2  10   37.05    9.94
  -7  -2  10   47.95    7.43
   6   2 -10   73.70    9.53
   6   2 -10   59.97    6.80
  -6  -2  10   60.99    6.23
   5   2 -10   79.30    8.34
   5   2 -10   71.87    6.52
  -5  -2  10   80.46    5.83
  -5  -2  10   87.94   10.61
   4   2 -10  123.68   10.09
  -4  -2  10  125.82   10.46
  -4  -2  10  141.63    6.59
   3   2 -10  480.92   18.04
  -3  -2  10  502.06   14.91
   2   2 -10  114.17    6.99
   2   2 -10  101.40    4.60
   2   2 -10   93.70    8.53
  -2  -2  10  102.38    4.62
   1   2 -10   69.58    5.39
   1   2 -10   67.76    6.62
   1   2 -10   65.13    4.06
  -1  -2  10   72.73    7.51
   0   2 -10  146.13    6.65
   0  -2  10  157.07    9.48
   0  -2  10  148.69   10.01
  -1   2 -10  250.41   10.37
   1  -2  10  257.07   13.10
   1  -2  10  246.34   13.32
  -2   2 -10  393.53   16.24
  -2   2 -10  405.90   15.29
   2  -2  10  384.64   17.29
  -3   2 -10   13.78    3.67
  -3   2 -10   27.45    4.66
   3  -2  10   21.28    5.48
   3  -2  10   22.06    4.92
  -4   2 -10  114.29    8.68
  -4   2 -10  113.34    7.87
   4  -2  10   97.96    9.68
   4  -2  10  106.05    9.24
  -5   2 -10   47.08    6.09
  -5   2 -10   54.52    6.82
   5  -2  10   54.73   10.08
   5  -2  10   59.29    9.05
  -6   2 -10   53.46    8.63
  -6   2 -10   47.69    6.85
   6  -2  10   40.74    8.53
   6  -2  10   40.66   10.17
  -7   2 -10   47.59   10.14
   7  -2  10   48.46   11.33
   7  -2  10   40.96    8.50
  -8   2 -10   -5.74    8.18
   8  -2  10   -4.70   17.63
   8  -2  10    8.73    9.53
  10   1 -10   25.92    9.71
 -10  -1  10   13.04    9.68
 -10  -1  10   14.74   16.44
   9   1 -10   12.86    7.30
  -9  -1  10    7.02    7.28
  -9  -1  10    5.62   12.68
   8   1 -10   -0.08    6.54
   8   1 -10    3.53    5.09
  -8  -1  10   11.57    9.72
  -8  -1  10    3.88    5.24
   7   1 -10   30.58    5.52
   7   1 -10   51.88    8.37
  -7  -1  10   37.39    5.92
   6   1 -10   31.57    6.91
   6   1 -10   30.09    5.47
  -6  -1  10   26.46    8.72
  -6  -1  10   38.63    5.27
   5   1 -10   20.83    4.29
  -5  -1  10   14.97    5.57
  -5  -1  10   15.97    3.58
   4   1 -10   53.04    5.45
   4   1 -10   69.95    5.89
  -4  -1  10   60.37    7.67
  -4  -1  10   64.66    4.78
   3   1 -10  104.12    6.37
  -3  -1  10  101.14    8.81
  -3  -1  10  105.70    5.58
   2   1 -10  369.87   13.44
  -2  -1  10  362.24   12.42
   1   1 -10   92.20    5.32
   1   1 -10   70.18    7.19
  -1  -1  10   85.22    8.41
  -1  -1  10   79.01    7.02
   0   1 -10  248.57   13.76
   0   1 -10  257.95   10.71
   0  -1  10  242.99   11.76
  -1   1 -10  101.88    6.88
   1  -1  10   87.07    8.73
   1  -1  10   94.23    7.45
  -2   1 -10  109.48    7.73
   2  -1  10  128.14    8.55
   2  -1  10   97.58    8.79
  -3   1 -10   89.82    7.29
  -3   1 -10   87.92    6.85
   3  -1  10   94.24    8.94
   3  -1  10   85.30    8.15
  -4   1 -10   71.60    6.64
  -4   1 -10   64.91    8.14
   4  -1  10   66.60    8.48
   4  -1  10   75.09    9.20
  -5   1 -10   80.29    7.32
  -5   1 -10   78.32    9.89
   5  -1  10   60.26   10.39
  -6   1 -10   23.89    7.08
  -6   1 -10   46.10    6.81
   6  -1  10   28.35   10.83
   6  -1  10   31.17    7.82
  -7   1 -10    0.99    9.02
   7  -1  10    8.54   10.26
   7  -1  10   19.61    9.72
  10   0 -10    8.49   11.89
 -10   0  10   16.60    7.77
   9   0 -10   10.10    7.53
   9   0 -10   16.47    6.92
  -9   0  10   19.23   10.88
  -9   0  10   32.40    7.85
   8   0 -10   17.45    5.49
   8   0 -10   16.13    6.43
  -8   0  10   17.33    8.16
  -8   0  10   17.06    5.57
   7   0 -10   33.00    6.53
   7   0 -10   29.64    5.69
  -7   0  10   19.19    5.22
  -7   0  10   27.43    8.01
   6   0 -10   32.46    5.75
   6   0 -10   24.70    5.86
  -6   0  10   35.70    5.30
  -6   0  10   25.32    6.88
   5   0 -10  342.91   14.35
   5   0 -10  333.50   15.62
  -5   0  10  321.01   13.20
  -5   0  10  315.79   17.12
   4   0 -10  310.57   12.72
   4   0 -10  315.07   14.80
  -4   0  10  319.65   12.23
  -4   0  10  317.07   16.90
   3   0 -10   82.67    5.54
   3   0 -10   95.81    7.51
  -3   0  10   89.98    5.52
  -3   0  10   78.27    8.44
   2   0 -10  119.01    6.05
  -2   0  10  126.73    6.60
   1   0 -10  190.42    9.37
  -1   0  10  201.49    9.44
   0   0 -10  562.75   19.63
   0   0  10  549.16   18.59
   0   0  10  525.85   22.00
  -1   0 -10  179.04    9.71
   1   0  10  170.45   11.14
   1   0  10  174.83    9.12
  -2   0 -10   83.28    7.04
   2   0  10   87.76    7.30
   2   0  10   85.46    8.73
  -3   0 -10  176.48   10.84
  -3   0 -10  162.83   10.75
   3   0  10  197.75   12.99
   3   0  10  182.07   11.51
  -4   0 -10   49.63    6.04
  -4   0 -10   47.59    8.08
   4   0  10   41.34    7.59
   4   0  10   53.67    8.01
  -5   0 -10  173.21    9.86
  -5   0 -10  142.09   13.66
   5   0  10  162.17   14.84
   5   0  10  142.14   13.58
  -6   0 -10    2.83    7.35
   6   0  10    4.94    8.69
   6   0  10   20.41    8.66
  -7   0 -10   -0.84    8.27
   7   0  10   16.85   10.86
   7   0  10   -7.72   10.94
  10  -1 -10   -6.03    8.56
 -10   1  10   -9.16   11.63
 -10   1  10   -2.73    8.23
   9  -1 -10    8.41    5.53
   9  -1 -10   11.09    7.48
  -9   1  10   27.77    9.57
  -9   1  10   19.54    6.71
   8  -1 -10   16.55    5.28
  -8   1  10   15.75    5.77
  -8   1  10   19.46    8.19
   7  -1 -10    6.80    4.67
   7  -1 -10    1.78    4.35
  -7   1  10   -6.59    6.27
  -7   1  10   -0.75    4.02
   6  -1 -10   23.88    5.14
   6  -1 -10   18.94    5.08
  -6   1  10   35.25    7.40
   5  -1 -10   48.60    5.11
   5  -1 -10   38.97    6.03
  -5   1  10   25.44    6.75
  -5   1  10   37.48    4.82
   4  -1 -10  338.43   15.90
   4  -1 -10  337.84   12.49
  -4   1  10  354.84   13.73
  -4   1  10  347.54   17.71
   3  -1 -10  159.41    6.62
   3  -1 -10  156.79    9.74
  -3   1  10  148.92    8.05
  -3   1  10  142.34   10.59
   2  -1 -10   51.65    5.57
  -2   1  10   48.44    3.60
  -2   1  10   39.74    6.12
  -2   1  10   51.89    4.42
  -2   1  10   52.43    4.50
   1  -1 -10   94.40    7.47
   1  -1 -10  105.15    7.21
  -1   1  10   98.65    5.22
  -1   1  10   95.92    4.51
  -1   1  10  106.29    8.93
   0  -1 -10   77.97    7.88
   0  -1 -10   78.43    6.54
   0   1  10   78.04    5.16
   0   1  10   68.57    7.65
  -1  -1 -10  234.57   12.36
   1   1  10  232.37   13.86
   1   1  10  238.75   10.79
  -2  -1 -10   65.68    7.71
   2   1  10   71.55    9.06
   2   1  10   79.62    7.03
  -3  -1 -10   39.73    7.74
  -3  -1 -10   57.31    7.73
   3   1  10   41.84    7.51
   3   1  10   42.93    7.15
  -4  -1 -10   54.64    9.06
   4   1  10   55.06   10.05
   4   1  10   49.81    8.44
  -5  -1 -10   -0.42    6.81
   5   1  10    3.15    7.71
   5   1  10   16.34    7.97
  -6  -1 -10   17.63    8.94
   6   1  10   14.00   10.87
   6   1  10   -4.60    9.20
  11  -2 -10   35.63   20.83
  10  -2 -10    2.98    9.86
  10  -2 -10   -3.39    6.07
 -10   2  10    5.65   10.10
 -10   2  10   -2.42    7.48
   9  -2 -10    3.85    5.18
   9  -2 -10   16.00    6.80
  -9   2  10   12.56    6.62
  -9   2  10   24.40    8.50
   8  -2 -10   19.91    5.93
  -8   2  10   17.46    6.31
   7  -2 -10   75.14    8.67
  -7   2  10   59.20    8.97
  -7   2  10   80.72    7.43
   6  -2 -10  219.18   10.75
   6  -2 -10  210.10   12.73
  -6   2  10  215.36   14.09
  -6   2  10  224.50   11.58
   5  -2 -10    3.03    3.53
   5  -2 -10    6.93    2.93
  -5   2  10    3.51    4.09
  -5   2  10    3.24    4.11
   4  -2 -10   74.33    4.33
   4  -2 -10   65.82    7.33
  -4   2  10   80.05    7.86
  -4   2  10   75.22    6.25
   3  -2 -10   27.84    4.90
  -3   2  10   28.10    5.31
  -3   2  10   25.73    4.19
  -3   2  10   31.21    2.83
  -2   2  10  399.77   15.75
  -2   2  10  374.48   17.71
   1  -2 -10  273.54   13.31
  -1   2  10  270.49   14.88
   0  -2 -10   14.35    4.29
   0  -2 -10   15.55    4.06
   0   2  10   16.71    2.59
   0   2  10   13.96    4.63
   0   2  10   19.86    2.98
  -1  -2 -10  131.47    8.50
  -1  -2 -10  129.80    9.33
   1   2  10  114.91    6.73
   1   2  10  113.74   10.05
  -2  -2 -10   37.44    7.24
  -2  -2 -10   24.46    4.33
   2   2  10   33.48    5.38
  -3  -2 -10  167.64   14.00
  -3  -2 -10  206.24   13.73
   3   2  10  189.47   14.71
   3   2  10  185.54   10.80
  -4  -2 -10   44.18    7.90
  -4  -2 -10   51.59    8.71
   4   2  10   39.11   10.17
   4   2  10   66.19    9.00
  -5  -2 -10   12.03    7.96
   5   2  10   19.20    9.85
   5   2  10   12.39    8.26
  -6  -2 -10   18.69   10.62
   6   2  10   48.92   14.13
   6   2  10   13.54   11.21
  11  -3 -10   -3.50    7.45
  11  -3 -10   25.22   12.71
 -11   3  10    2.06   16.88
  10  -3 -10   12.35    9.64
  10  -3 -10   10.70    6.38
 -10   3  10  -12.37    8.86
 -10   3  10    5.14    7.86
   9  -3 -10    7.07    7.82
   9  -3 -10   -6.64    4.99
  -9   3  10    2.39    6.43
  -9   3  10   19.16    7.22
   8  -3 -10   -2.61    4.70
   8  -3 -10    5.75    6.79
  -8   3  10    7.50    6.05
  -8   3  10   16.10    6.20
  -7   3  10    8.88    5.82
  -7   3  10   13.86    5.50
   6  -3 -10  143.60    7.96
   6  -3 -10  119.57   10.04
  -6   3  10  149.86   10.69
  -6   3  10  128.14    9.08
   5  -3 -10   92.38    8.11
   5  -3 -10   76.62    5.03
  -5   3  10   85.17    7.05
  -5   3  10   83.49    9.09
   4  -3 -10   26.48    4.73
  -4   3  10   23.04    5.63
  -4   3  10   20.01    4.12
   3  -3 -10   16.89    4.36
  -3   3  10   23.08    5.86
  -3   3  10   25.54    4.53
   2  -3 -10    9.93    3.98
  -2   3  10   13.79    5.12
  -2   3  10   14.16    3.70
   1  -3 -10  190.65   10.82
   1  -3 -10  190.36   11.31
  -1   3  10  183.69   12.57
   0  -3 -10  130.85    9.97
   0  -3 -10  105.63    8.49
   0   3  10  117.40    9.82
  -1  -3 -10   18.24    4.16
  -1  -3 -10   12.95    4.49
   1   3  10   17.70    3.36
   1   3  10   17.51    6.37
  -2  -3 -10   52.44    6.55
  -2  -3 -10   59.42    7.52
   2   3  10   55.17   10.08
   2   3  10   39.97    6.41
  -3  -3 -10    8.74    4.78
  -3  -3 -10   19.94    7.90
   3   3  10   24.67    7.79
   3   3  10   14.94    6.67
  -4  -3 -10   40.52    9.23
   4   3  10   35.42    9.50
  -5  -3 -10   24.98    8.44
   5   3  10   25.10   10.72
  11  -4 -10    0.13    8.25
  11  -4 -10   25.37   11.74
 -11   4  10   17.09   10.68
  10  -4 -10   -0.13    6.23
  10  -4 -10   20.16    9.04
 -10   4  10    8.57    8.90
 -10   4  10   -8.49    7.81
   9  -4 -10   24.77    8.33
   9  -4 -10   11.31    6.22
  -9   4  10    7.81    6.76
  -9   4  10   21.39    6.33
   8  -4 -10   72.49   14.31
   8  -4 -10   46.82    8.33
  -8   4  10   60.40    8.77
  -8   4  10   38.91    8.37
   7  -4 -10   -0.95    4.25
   7  -4 -10   -8.04    4.31
  -7   4  10    9.83    4.79
  -7   4  10    6.24    5.68
   6  -4 -10   17.54    5.01
   6  -4 -10   19.61    4.03
  -6   4  10   26.60    5.75
   5  -4 -10    4.34    4.20
  -5   4  10    3.57    4.32
  -5   4  10    4.45    3.86
   4  -4 -10  132.67   10.10
  -4   4  10  123.35    9.79
  -4   4  10  120.40    8.96
   3  -4 -10  223.87   12.86
  -3   4  10  230.69   14.51
  -3   4  10  210.79   12.38
   2  -4 -10   15.44    4.95
  -2   4  10   16.83    5.09
  -2   4  10   21.96    4.55
   1  -4 -10   32.05    6.00
   1  -4 -10   28.52    6.19
  -1   4  10   28.34    6.44
   0  -4 -10   10.23    4.41
   0  -4 -10   16.10    4.63
   0   4  10   26.60    7.81
  -1  -4 -10  111.86    8.60
  -1  -4 -10  100.34   10.94
   1   4  10  124.03   13.41
  -2  -4 -10  117.87    8.82
  -2  -4 -10   91.96   11.19
   2   4  10   99.91   12.84
  -3  -4 -10   -3.95    6.54
   3   4  10   -8.17    7.58
  -4  -4 -10   51.49   11.02
   4   4  10   75.56   14.65
  11  -5 -10  -10.05   10.81
  11  -5 -10    6.13    8.03
 -11   5  10   -6.68    9.68
  10  -5 -10   -5.74    6.55
  10  -5 -10   -8.20    9.29
 -10   5  10   14.62    8.52
   9  -5 -10    0.73    7.39
   9  -5 -10   -4.76    5.45
  -9   5  10    7.32    7.50
  -9   5  10   18.05    6.37
   8  -5 -10   35.39    7.09
   8  -5 -10   46.69    7.53
  -8   5  10   28.60    7.46
  -8   5  10   31.76    7.00
   7  -5 -10    8.62    4.24
   7  -5 -10    9.48    5.56
  -7   5  10    3.04    5.86
  -7   5  10    3.82    5.24
   6  -5 -10   30.70    6.94
  -6   5  10   10.84    6.11
  -6   5  10   17.93    4.90
   5  -5 -10    5.61    4.69
  -5   5  10   -5.09    5.38
   4  -5 -10    6.79    4.27
  -4   5  10    5.54    4.88
  -4   5  10   -1.18    3.53
   3  -5 -10   42.21    7.22
  -3   5  10   48.94    8.92
  -3   5  10   40.95    6.56
   2  -5 -10   99.96    8.92
  -2   5  10  107.64   10.33
  -2   5  10  113.71    9.88
   1  -5 -10   54.98    8.62
   1  -5 -10   42.01    7.27
  -1   5  10   51.61    8.64
   0  -5 -10   39.64    7.24
   0  -5 -10   25.22    5.42
   0   5  10   47.43    9.68
  -1  -5 -10    3.10    4.77
  -1  -5 -10    3.08    6.87
   1   5  10    0.53    7.05
  -2  -5 -10   44.62    9.59
   2   5  10   34.21   11.17
  -3  -5 -10   51.91   11.57
   3   5  10   52.76   13.03
  11  -6 -10  -12.32    7.52
 -11   6  10    7.88   11.53
  10  -6 -10    5.31    7.66
 -10   6  10   11.54    9.66
   9  -6 -10   -8.99    6.41
  -9   6  10    3.66    7.57
  -9   6  10   13.53    7.25
   8  -6 -10   10.77    5.83
  -8   6  10    0.84    5.71
  -8   6  10    9.87    6.43
   7  -6 -10    5.33    5.83
  -7   6  10    5.38    6.32
   6  -6 -10   13.59    5.22
  -6   6  10   23.11    5.85
   5  -6 -10   80.40    9.00
  -5   6  10   81.11   10.69
  -5   6  10   67.06    7.95
   4  -6 -10   23.47    5.70
  -4   6  10   12.85    6.09
   3  -6 -10    2.42    5.09
  -3   6  10   16.06    5.32
  -3   6  10    3.72    5.71
   2  -6 -10   10.13    5.60
   2  -6 -10   10.15    5.42
  -2   6  10    4.40    4.65
  -2   6  10    7.01    6.47
   1  -6 -10   29.93    8.29
   1  -6 -10   33.00    6.53
  -1   6  10   54.67   10.01
   0  -6 -10   58.41    9.86
   0  -6 -10   67.20    8.78
   0   6  10   70.49   12.42
  -1  -6 -10   17.54   10.57
  -1  -6 -10   -7.00    5.19
   1   6  10   -5.42   16.65
  -2  -6 -10   19.56    9.17
   2   6  10   11.28   13.31
  10  -7 -10    8.66    8.76
 -10   7  10    7.24   10.01
   9  -7 -10    2.80    6.78
  -9   7  10  -11.16    7.08
   8  -7 -10   18.45    6.85
  -8   7  10   25.23    7.84
  -8   7  10    4.65    7.23
   7  -7 -10    2.54    6.18
  -7   7  10    4.27    6.53
   6  -7 -10    0.57    5.98
  -6   7  10   13.97    5.67
  -6   7  10   11.12    6.58
   5  -7 -10   17.90    7.11
  -5   7  10   23.48    7.67
  -5   7  10   28.97    6.30
   4  -7 -10   45.17    9.13
  -4   7  10   34.94    6.16
  -4   7  10   47.55    9.01
   3  -7 -10   43.94    8.51
  -3   7  10   53.48    9.92
  -3   7  10   33.73    8.21
   2  -7 -10    0.33    5.83
   2  -7 -10    9.87    6.12
  -2   7  10    0.12    7.73
   1  -7 -10    9.32    6.54
   1  -7 -10   10.11    6.80
  -1   7  10   22.91    9.22
   0  -7 -10   15.63    7.64
   0   7  10   22.66   10.12
  -1  -7 -10   34.07   10.99
   1   7  10    7.66   11.93
  10  -8 -10   -9.89    8.07
 -10   8  10  -17.58    9.89
  -9   8  10   21.66    8.06
   8  -8 -10    4.32    9.75
  -8   8  10   -1.74    8.86
  -8   8  10   -0.08    7.40
   7  -8 -10   10.12    7.68
  -7   8  10   11.51    7.05
  -7   8  10   11.29    7.65
   6  -8 -10    0.53    7.20
  -6   8  10   14.06    7.22
  -6   8  10   -2.36    6.37
   5  -8 -10    1.57    7.46
  -5   8  10    5.68    5.60
  -5   8  10   20.64    8.15
   4  -8 -10    6.65    6.97
  -4   8  10   11.97    7.63
  -4   8  10    4.01    8.35
   3  -8 -10   10.09    7.53
  -3   8  10   13.99    8.08
  -3   8  10    8.29    7.53
   2  -8 -10   31.68    7.99
   2  -8 -10   41.94    9.19
   1  -8 -10   19.91    9.60
   1  -8 -10   -1.73    7.66
  -1   8  10    5.91    9.82
   9  -9 -10   14.03    9.86
  -9   9  10   -4.53   10.00
   8  -9 -10   -0.27    8.73
  -8   9  10    1.92    9.20
   7  -9 -10    3.74    9.09
  -7   9  10   23.54    9.64
  -7   9  10    1.53    8.62
   6  -9 -10    0.02    9.04
  -6   9  10    5.84    8.85
  -6   9  10    1.09    7.32
   5  -9 -10   25.40   10.62
  -5   9  10   26.34    8.35
  -5   9  10    4.69    9.88
   4  -9 -10    3.02    8.27
  -4   9  10  -14.71    8.63
  -4   9  10    7.86   10.77
   3  -9 -10    4.47    8.92
   3  -9 -10    9.14    8.98
  -3   9  10    9.26   20.07
   2  -9 -10    7.58    9.62
   2  -9 -10    9.52    8.76
  -2   9  10  -16.05   12.67
  -1  12 -11   13.05    7.73
  -1  12 -11   20.42   12.50
   1 -12  11   12.14   11.41
  -2  12 -11   -1.57    9.18
   2 -12  11    6.11   15.59
   2 -12  11   -6.07   11.25
  -3  12 -11    1.67    6.62
   3 -12  11   -8.18   10.20
   3 -12  11  -12.82   14.26
  -4  12 -11    0.30    6.42
   4 -12  11   -8.28   12.55
  -5  12 -11    4.89    6.50
   5 -12  11   10.76   14.30
  -6  12 -11    7.24    7.02
   6 -12  11    9.94   14.75
   1  11 -11   -3.10    8.94
   1  11 -11   -5.83    7.01
  -1 -11  11   12.18   10.48
   0 -11  11   -9.04   10.62
  -1  11 -11    8.99    6.24
  -1  11 -11   36.97   15.73
   1 -11  11    5.72    9.20
  -2  11 -11   15.46    5.91
   2 -11  11   22.54   11.56
   2 -11  11   33.91    9.92
  -3  11 -11    2.74    5.25
   3 -11  11   -2.74   10.40
   3 -11  11   12.69    8.79
  -4  11 -11   14.57    6.60
   4 -11  11   32.12   15.81
   4 -11  11   -2.60    7.63
  -5  11 -11   -3.27   10.06
   5 -11  11    6.26   14.25
  -6  11 -11    3.41    6.00
   6 -11  11    8.76   13.43
  -7  11 -11   -1.96    6.59
   7 -11  11    8.62   14.65
   3  10 -11   -7.39   10.16
   2  10 -11    4.83    6.18
   2  10 -11    6.30    8.81
  -2 -10  11   -2.40    9.74
   1  10 -11   18.08    6.32
   1  10 -11   15.33    8.74
  -1 -10  11   10.38    9.32
   0  10 -11   13.73    9.26
   0 -10  11   17.66    8.87
  -1  10 -11    0.75    8.37
  -1  10 -11   -2.10    5.40
   1 -10  11    7.26    8.03
  -2  10 -11   -5.22    4.45
   2 -10  11   -2.20    7.59
   2 -10  11   12.07   10.44
  -3  10 -11   27.05    6.39
   3 -10  11   14.44   10.92
   3 -10  11   26.34    7.64
  -4  10 -11   41.70    7.58
   4 -10  11   46.09    8.57
   4 -10  11   30.16   10.03
  -5  10 -11   -2.41    4.92
   5 -10  11   12.35   10.97
  -6  10 -11   -7.49    5.55
   6 -10  11   12.81   11.08
  -7  10 -11    5.63    6.23
   7 -10  11    2.34   13.85
  -8  10 -11   -0.84    6.88
   8 -10  11  -23.43   12.92
  -4  -9  11   -1.92   11.53
   3   9 -11   -8.17    5.36
   3   9 -11    2.43    8.41
   2   9 -11    5.35    7.75
   2   9 -11   -3.97    4.88
  -2  -9  11   -1.25    7.81
   1   9 -11   17.45    5.46
   1   9 -11   26.48    7.32
  -1  -9  11   10.05    8.35
   0   9 -11   26.22    5.96
   0   9 -11   35.18    8.65
   0  -9  11   22.08    7.28
  -1   9 -11   29.39    7.70
  -1   9 -11   12.14    5.39
   1  -9  11   11.91    7.48
  -2   9 -11    5.65    4.24
   2  -9  11   13.17    6.76
  -3   9 -11   23.26    5.57
   3  -9  11   17.28    6.69
   3  -9  11   35.35   11.57
  -4   9 -11   25.82    6.43
   4  -9  11   37.34   10.19
   4  -9  11   49.51    9.40
  -5   9 -11   -1.94    4.86
   5  -9  11   17.38   11.61
   5  -9  11    7.02    7.27
  -6   9 -11   10.86    5.53
   6  -9  11   10.66   11.09
  -7   9 -11    0.45    6.27
  -7   9 -11    5.34    6.17
  -8   9 -11    7.68    7.77
  -8   9 -11    7.20    8.19
   8  -9  11    4.55   12.14
   5   8 -11    7.48   11.34
  -5  -8  11   22.71   12.74
   3   8 -11   35.51    9.06
  -3  -8  11   23.15    7.92
   2   8 -11    5.44    4.55
  -2  -8  11   12.00    7.08
   1   8 -11    8.97    4.53
   1   8 -11    9.97    6.29
   0   8 -11   -0.81    5.31
   0   8 -11   -1.82    4.10
   0  -8  11   -7.64    5.17
  -1   8 -11   55.05    6.28
   1  -8  11   54.37   10.09
  -2   8 -11  144.04   10.49
   2  -8  11  132.34   14.85
   2  -8  11  152.19   12.40
  -3   8 -11   35.93    6.42
   3  -8  11   34.83    7.46
   3  -8  11   31.29    9.34
  -4   8 -11   21.60    5.63
  -4   8 -11   29.58    6.27
   4  -8  11   14.59    8.99
   4  -8  11   14.55    6.81
  -5   8 -11    6.60    4.64
   5  -8  11   10.88    5.71
   5  -8  11   10.37    9.44
  -6   8 -11    7.70    5.97
   6  -8  11   10.17   10.19
  -7   8 -11   25.35    7.43
  -7   8 -11   10.06    5.87
   7  -8  11   16.00   11.29
  -8   8 -11   19.37    7.99
  -8   8 -11    4.96    6.72
   8  -8  11    1.89   12.47
   6   7 -11    2.74   12.82
  -6  -7  11    7.10   14.26
   5   7 -11  -16.35   14.35
   4   7 -11   -7.27    6.74
   4   7 -11    6.75    4.49
  -4  -7  11   -1.85    7.62
   3   7 -11   13.56    4.77
   3   7 -11    8.25    6.10
  -3  -7  11    8.26    6.75
   2   7 -11   66.25    6.78
   2   7 -11   83.96    8.98
  -2  -7  11   64.34   10.74
   1   7 -11    5.70    3.89
   1   7 -11    7.30    4.55
  -1  -7  11    8.84    5.10
   0   7 -11   -3.00    3.31
   0   7 -11    4.58    4.69
   0  -7  11    3.13    4.87
  -1   7 -11   37.23    7.76
  -1   7 -11   33.81    5.91
   1  -7  11   30.26    6.95
   1  -7  11   41.24   10.21
  -2   7 -11  136.80   10.24
   2  -7  11  144.88   11.46
   2  -7  11  128.28   13.16
  -3   7 -11   24.12    3.56
   3  -7  11   23.34    7.53
   3  -7  11   23.92    6.75
  -4   7 -11   33.14    4.48
  -4   7 -11   33.99    5.73
   4  -7  11   15.55    8.50
  -5   7 -11    3.65    4.06
  -5   7 -11    5.95    4.29
   5  -7  11    0.46    4.78
   5  -7  11   -2.48    8.29
  -6   7 -11    4.54    4.47
  -6   7 -11    9.71    6.21
   6  -7  11    8.10    5.01
   6  -7  11    9.39   10.03
  -7   7 -11    0.76    5.11
   7  -7  11    3.08   11.62
  -8   7 -11   -3.08    6.12
  -8   7 -11   18.59    8.31
   8  -7  11  -21.61   12.49
   7   6 -11   32.90   11.90
  -7  -6  11   -2.15   14.22
  -6  -6  11   42.01   24.14
   5   6 -11   31.34   10.23
   5   6 -11   24.64    4.85
  -5  -6  11   31.87   10.36
   4   6 -11   35.94    6.09
   4   6 -11   27.93    8.60
  -4  -6  11   16.01    7.63
   3   6 -11   61.65    8.83
   3   6 -11   46.70    6.96
  -3  -6  11   53.56    9.65
   2   6 -11   20.92    4.58
   2   6 -11   32.29    6.07
  -2  -6  11   29.15    7.38
   1   6 -11   26.23    4.33
   1   6 -11   31.18    6.26
  -1  -6  11   41.25    7.91
   0   6 -11  245.58   13.16
   0   6 -11  239.68   12.72
   0  -6  11  222.91   14.77
  -1   6 -11  155.53   10.04
   1  -6  11  161.43   11.77
   1  -6  11  166.08   14.35
  -2   6 -11   57.99    3.28
  -2   6 -11   67.42    6.83
   2  -6  11   54.12   10.14
   2  -6  11   47.18    7.81
  -3   6 -11   14.64    4.16
  -3   6 -11   17.62    2.96
   3  -6  11   21.69    5.41
   3  -6  11   21.42    6.70
  -4   6 -11   43.77    6.19
  -4   6 -11   47.10    5.83
   4  -6  11   52.88   10.50
  -5   6 -11   77.78    7.64
  -5   6 -11   78.65    7.53
   5  -6  11   69.14   10.80
  -6   6 -11   11.40    5.10
  -6   6 -11    6.89    5.30
   6  -6  11   -5.94    8.35
   6  -6  11   -7.30    9.23
  -7   6 -11    7.24    6.23
  -7   6 -11   -1.57    5.52
   7  -6  11   -0.63    8.96
  -8   6 -11   21.46    8.19
  -8   6 -11    6.07    6.73
   7   5 -11    5.40   11.28
  -7  -5  11    8.98   16.00
   6   5 -11   12.20    9.24
   6   5 -11    2.56    4.06
  -6  -5  11  -15.51   10.18
   5   5 -11    3.29    6.47
   5   5 -11    4.85    3.92
  -5  -5  11   10.57    9.09
   4   5 -11   85.39    7.59
   4   5 -11  101.47   10.21
  -4  -5  11   74.42   11.91
   3   5 -11   51.28    5.90
   3   5 -11   39.41    6.28
   2   5 -11   -0.77    3.38
   2   5 -11    4.64    2.96
  -2  -5  11    4.13    4.66
   1   5 -11   -3.88    2.63
   1   5 -11    1.71    4.16
  -1  -5  11    2.91    4.88
   0   5 -11  208.48   11.46
   0   5 -11  184.74   10.72
   0  -5  11  185.44   12.54
  -1   5 -11  212.78   11.57
   1  -5  11  221.38   13.61
   1  -5  11  222.68   15.11
  -2   5 -11   24.39    3.18
  -2   5 -11   18.64    4.15
   2  -5  11   35.85    6.65
   2  -5  11   27.68    8.02
  -3   5 -11   25.14    4.52
  -3   5 -11   15.97    3.44
   3  -5  11   11.28    6.37
   3  -5  11   11.54    5.13
  -4   5 -11   -0.64    3.27
  -4   5 -11    1.06    3.55
   4  -5  11    1.03    4.74
   4  -5  11    6.22    6.67
  -5   5 -11   41.00    6.83
  -5   5 -11   28.29    5.25
   5  -5  11   35.23    8.30
   5  -5  11   43.19    7.68
  -6   5 -11   22.53    5.68
   6  -5  11   27.56    6.22
   6  -5  11   38.11    9.58
  -7   5 -11   22.66    6.72
  -7   5 -11    8.49    5.42
   7  -5  11   19.43   10.79
   7  -5  11   12.07    6.12
  -8   5 -11   -4.99    6.58
  -8   5 -11   13.82    8.47
   8   4 -11   13.50   13.34
  -8  -4  11   18.50   15.89
   7   4 -11   39.80   11.08
  -7  -4  11   27.53   12.62
   6   4 -11   31.73    7.98
   6   4 -11   40.28    6.51
  -6  -4  11   51.04    6.90
  -6  -4  11   24.37    8.45
   5   4 -11   67.68    9.91
   5   4 -11   74.53    7.04
  -5  -4  11   59.75    5.53
  -5  -4  11   53.67   11.26
   4   4 -11   77.82    8.08
   4   4 -11   88.62    7.17
  -4  -4  11   91.72    4.73
  -4  -4  11   70.06   11.32
   3   4 -11   -1.00    3.91
   3   4 -11    5.52    3.13
  -3  -4  11   13.89    5.80
   2   4 -11  213.89   11.38
   2   4 -11  208.20   11.54
  -2  -4  11  213.63   14.46
   1   4 -11  301.01   14.14
  -1  -4  11  301.83   16.91
   0   4 -11  135.07    8.91
   0   4 -11  131.66    9.93
   0  -4  11  125.32   11.45
   0  -4  11  141.03   10.55
  -1   4 -11   88.84    7.03
  -1   4 -11   93.85    4.71
   1  -4  11   93.58    8.73
  -2   4 -11   27.99    4.41
  -2   4 -11   27.84    3.74
   2  -4  11   29.71    7.23
   2  -4  11   29.59    6.58
  -3   4 -11  227.86   12.13
  -3   4 -11  224.30   10.52
   3  -4  11  202.96   13.84
   3  -4  11  237.29   13.50
  -4   4 -11   56.99    6.82
   4  -4  11   59.18    7.83
   4  -4  11   61.33   11.15
  -5   4 -11   24.73    4.73
  -5   4 -11   26.18    5.89
   5  -4  11   24.51    8.22
   5  -4  11   19.41    6.04
  -6   4 -11   22.22    6.27
  -6   4 -11   31.25    6.13
   6  -4  11   20.43    9.54
   6  -4  11   43.32    8.98
  -7   4 -11    9.44    5.53
  -7   4 -11   14.96    7.38
   7  -4  11    6.52   10.41
   7  -4  11   -1.07    6.87
  -8   4 -11   12.37    6.49
  -8   4 -11   17.40    8.68
  -9  -3  11  -25.82   17.56
   8   3 -11  -15.29   11.44
  -8  -3  11  -22.30   13.39
  -8  -3  11    5.86    7.01
   7   3 -11    4.43    8.82
   7   3 -11    1.13    4.44
  -7  -3  11    0.00    4.95
  -7  -3  11  -13.52    9.66
   6   3 -11   52.84    9.74
   6   3 -11   34.31    5.99
  -6  -3  11   44.88   10.14
  -6  -3  11   34.47    5.49
   5   3 -11   66.04    8.59
   5   3 -11   54.76    6.13
  -5  -3  11   49.77    9.34
  -5  -3  11   48.31    5.10
   4   3 -11    7.40    4.53
   4   3 -11    7.26    3.61
  -4  -3  11   10.25    2.27
  -4  -3  11   10.11    5.54
   3   3 -11   16.89    3.57
   3   3 -11   17.79    4.13
   3   3 -11   21.05    2.78
  -3  -3  11   17.40    5.47
  -3  -3  11   21.25    2.41
   2   3 -11   74.71    3.10
   2   3 -11   78.87    3.08
   2   3 -11   75.99    6.52
   2   3 -11   70.52    6.17
  -2  -3  11   75.64    7.94
   1   3 -11  553.63   19.63
   1   3 -11  550.71   14.75
   1   3 -11  529.50   15.67
   1   3 -11  536.84   20.73
  -1  -3  11  549.65   24.01
   0   3 -11   98.15    4.82
   0   3 -11   90.03    6.95
   0  -3  11   98.00    8.75
   0  -3  11  100.33    8.82
  -1   3 -11    8.11    3.07
  -1   3 -11    9.33    2.53
   1  -3  11    7.77    4.72
   1  -3  11    7.60    3.70
  -2   3 -11    9.46    3.23
  -2   3 -11    9.60    3.04
   2  -3  11    4.32    4.03
   2  -3  11    9.33    5.03
  -3   3 -11   69.55    6.08
  -3   3 -11   62.34    6.45
   3  -3  11   50.66    7.84
   3  -3  11   79.89    8.52
  -4   3 -11  132.39    9.40
  -4   3 -11  122.38    9.10
   4  -3  11  140.18   11.85
   4  -3  11  141.03   10.63
  -5   3 -11   35.41    6.29
  -5   3 -11   19.71    5.92
   5  -3  11   33.59    7.69
   5  -3  11   33.51    8.13
  -6   3 -11   17.95    5.52
  -6   3 -11   16.03    6.51
   6  -3  11   12.65    6.45
  -7   3 -11  -11.87    7.67
  -7   3 -11   -6.08    5.00
   7  -3  11    7.98    7.82
   7  -3  11  -20.07   10.82
  -8   3 -11   19.58   10.41
   8  -3  11   14.21   14.90
   8  -3  11   22.89   10.61
   9   2 -11  -12.14   22.70
  -9  -2  11    8.05    7.75
  -9  -2  11   -9.59   13.82
   8   2 -11   23.80    5.66
   8   2 -11   25.37   11.40
  -8  -2  11   47.20   16.07
  -8  -2  11   23.18    6.36
   7   2 -11   49.90    6.89
   7   2 -11   47.82   10.52
  -7  -2  11   49.88    7.15
  -7  -2  11   48.02   12.00
   6   2 -11   78.90    7.69
   6   2 -11   91.31    9.51
  -6  -2  11   70.67   12.70
  -6  -2  11   90.68    6.96
   5   2 -11   32.46    5.71
   5   2 -11   39.03    5.39
  -5  -2  11   36.34    4.75
  -5  -2  11   45.16    8.87
   4   2 -11  137.80    9.68
  -4  -2  11  127.90   11.84
  -4  -2  11  149.74    6.78
   3   2 -11  310.61   14.85
   3   2 -11  332.54   13.99
  -3  -2  11  328.14   10.94
  -3  -2  11  322.87   17.82
   2   2 -11  366.08   14.43
   2   2 -11  371.67   16.22
  -2  -2  11  360.09   11.64
  -2  -2  11  351.57   18.50
   1   2 -11  289.55   13.90
   1   2 -11  286.29   10.33
   1   2 -11  278.43   11.82
  -1  -2  11  292.89   15.86
   0   2 -11   -0.66    2.69
   0   2 -11    0.09    2.23
   0  -2  11   -0.43    3.55
   0  -2  11   -4.38    3.96
  -1   2 -11  268.26   13.02
  -1   2 -11  273.23   11.56
   1  -2  11  271.07   14.93
   1  -2  11  282.60   14.08
  -2   2 -11  225.43   10.79
  -2   2 -11  203.54   11.55
   2  -2  11  222.18   12.75
   2  -2  11  207.26   12.57
  -3   2 -11   48.76    6.26
  -3   2 -11   53.34    6.39
   3  -2  11   40.05    7.82
  -4   2 -11   86.93    8.60
  -4   2 -11   79.73    7.48
   4  -2  11   92.55    9.70
   4  -2  11   92.54    9.33
  -5   2 -11    0.31    5.24
  -5   2 -11    5.30    4.29
   5  -2  11   12.61    7.56
   5  -2  11    0.83    6.26
  -6   2 -11   67.72   10.46
  -6   2 -11   63.35    7.99
   6  -2  11   83.26   11.65
   6  -2  11   58.59   11.57
  -7   2 -11   27.41    8.18
   7  -2  11   26.84    8.86
   7  -2  11   40.27   11.00
 -10  -1  11  -10.13   36.12
 -10  -1  11  -15.83    8.68
   9   1 -11  -16.06   11.04
   9   1 -11   -2.22   10.62
  -9  -1  11   11.25    6.89
  -9  -1  11  -22.90   13.41
   8   1 -11    7.44    5.68
   8   1 -11    8.87    9.03
  -8  -1  11    5.94    5.64
  -8  -1  11  -11.62   10.74
   7   1 -11   25.53    7.80
   7   1 -11   25.84    5.17
  -7  -1  11   15.97    5.08
   6   1 -11   17.77    4.79
   6   1 -11   20.07    5.78
  -6  -1  11   22.36    7.28
  -6  -1  11   13.90    4.23
   5   1 -11   69.16    7.61
   5   1 -11   48.96    6.87
  -5  -1  11   47.64    8.42
  -5  -1  11   51.80    5.22
   4   1 -11   29.85    4.80
   4   1 -11   31.76    5.24
  -4  -1  11   27.47    3.79
   3   1 -11  438.97   18.52
   3   1 -11  445.65   16.41
  -3  -1  11  444.24   21.35
  -3  -1  11  463.64   15.02
   2   1 -11  261.73   13.16
   2   1 -11  259.80   10.65
  -2  -1  11  250.99   14.92
  -2  -1  11  255.74   10.11
   1   1 -11    0.63    2.62
   1   1 -11    7.96    2.48
  -1  -1  11    4.66    3.62
  -1  -1  11   12.51    3.89
   0   1 -11   71.08    6.50
   0   1 -11   74.60    5.74
   0  -1  11   75.00    7.76
   0  -1  11   86.02    7.10
  -1   1 -11   30.18    4.68
  -1   1 -11   18.52    3.96
   1  -1  11   22.33    5.39
   1  -1  11   28.83    6.29
  -2   1 -11  261.32   12.67
   2  -1  11  243.36   14.20
   2  -1  11  246.26   12.74
  -3   1 -11  112.86    9.25
  -3   1 -11  101.63    7.52
   3  -1  11  105.08    8.96
   3  -1  11  116.19   10.29
  -4   1 -11   10.75    5.57
  -4   1 -11    2.97    3.62
   4  -1  11    8.08    6.51
   4  -1  11    3.91    5.11
  -5   1 -11   24.59    4.92
  -5   1 -11   25.60    7.27
   5  -1  11   21.10    7.79
   5  -1  11   19.96    7.98
  -6   1 -11    5.22    7.34
  -6   1 -11    6.55    7.26
   6  -1  11    2.76    9.16
   6  -1  11  -12.04    8.21
  -7   1 -11   22.95    8.62
   7  -1  11    2.13   10.66
   7  -1  11    4.76   10.08
 -10   0  11   13.67   15.09
 -10   0  11    9.45    8.50
   9   0 -11   21.99    8.24
   9   0 -11   28.15    6.52
  -9   0  11   22.59    7.63
  -9   0  11   42.03   12.37
   8   0 -11   46.10    8.60
   8   0 -11   58.05    8.95
  -8   0  11   46.74    8.32
  -8   0  11   61.26   12.33
   7   0 -11   65.75    8.84
   7   0 -11  104.66   10.47
  -7   0  11   77.55    7.99
  -7   0  11   84.44   12.79
   6   0 -11    8.35    5.05
   6   0 -11   12.32    5.52
  -6   0  11   19.92    4.31
  -6   0  11   20.72    7.18
   5   0 -11  197.67   10.26
   5   0 -11  184.75   11.89
  -5   0  11  197.57    9.74
  -5   0  11  188.32   13.83
   4   0 -11  184.21    8.86
   4   0 -11  166.84   10.48
  -4   0  11  158.59    8.24
  -4   0  11  153.18   11.92
   3   0 -11  354.06   16.40
   3   0 -11  343.07   12.74
  -3   0  11  340.97   13.15
  -3   0  11  344.93   17.94
   2   0 -11   79.95    6.74
  -2   0  11   83.44    6.74
  -2   0  11   82.31    5.70
  -2   0  11   87.13    8.34
   1   0 -11  176.81   10.48
   1   0 -11  183.71    9.23
  -1   0  11  177.73    9.05
  -1   0  11  173.36   11.99
   0   0 -11  320.05   14.67
   0   0 -11  323.80   13.79
   0   0  11  324.56   12.90
   0   0  11  306.73   15.97
  -1   0 -11  120.52    8.00
   1   0  11  103.73    9.97
   1   0  11  106.66    7.74
  -2   0 -11  147.33    9.55
  -2   0 -11  154.26   10.03
   2   0  11  147.42    9.98
   2   0  11  159.07   11.75
  -3   0 -11   24.74    5.43
  -3   0 -11   13.63    3.94
   3   0  11   25.31    7.05
   3   0  11   18.74    5.65
  -4   0 -11   62.09    8.20
  -4   0 -11   73.59    7.16
   4   0  11   66.34    9.14
   4   0  11   73.72    9.94
  -5   0 -11   44.81    9.78
  -5   0 -11   58.24    7.18
   5   0  11   39.31   10.24
   5   0  11   47.87    9.39
  -6   0 -11   10.09   14.25
   6   0  11   -8.67    8.92
   6   0  11   10.23    9.71
  10  -1 -11   -1.93    7.75
  10  -1 -11  -16.51    9.01
 -10   1  11    4.67    7.63
 -10   1  11   20.34   12.97
   9  -1 -11   -3.86    7.59
   9  -1 -11   11.25    6.82
  -9   1  11   -1.45    6.52
  -9   1  11   27.70   11.67
   8  -1 -11    5.65    6.26
   8  -1 -11    6.62    5.55
  -8   1  11   14.73    7.95
  -8   1  11   22.47    5.75
   7  -1 -11   11.46    6.02
   7  -1 -11   17.62    4.89
  -7   1  11   17.68    5.07
  -7   1  11   13.25    7.74
   6  -1 -11   22.00    4.80
   6  -1 -11   12.78    4.06
  -6   1  11   21.35    4.95
  -6   1  11   14.53    6.13
   5  -1 -11  129.75    9.76
   5  -1 -11  141.87    8.13
  -5   1  11  137.70    8.39
  -5   1  11  146.17   11.80
   4  -1 -11  143.21    7.16
   4  -1 -11  138.09    9.81
  -4   1  11  147.80   11.85
  -4   1  11  134.00    7.99
   3  -1 -11   40.44    3.55
   3  -1 -11   37.48    5.31
  -3   1  11   41.08    4.72
  -3   1  11   37.93    6.48
   2  -1 -11  101.81    7.92
  -2   1  11   91.45    4.89
  -2   1  11  100.11    7.05
  -2   1  11   98.55    5.65
  -2   1  11  109.37   10.20
   1  -1 -11   25.04    4.16
   1  -1 -11   28.66    4.69
  -1   1  11   21.85    3.36
  -1   1  11   20.06    3.13
  -1   1  11   31.10    6.42
   0  -1 -11  205.68   11.29
   0  -1 -11  206.02   11.52
   0   1  11  200.66   12.88
   0   1  11  204.28    9.02
  -1  -1 -11  186.49   11.47
  -1  -1 -11  183.58   10.22
   1   1  11  173.85    9.25
   1   1  11  179.34   12.96
  -2  -1 -11   11.46    4.94
  -2  -1 -11   13.32    3.68
   2   1  11   14.93    4.67
   2   1  11   15.71    6.38
  -3  -1 -11   35.00    5.95
  -3  -1 -11   38.24    7.16
   3   1  11   46.00    8.28
   3   1  11   25.17    5.71
  -4  -1 -11    4.67    6.15
  -4  -1 -11    3.14    4.51
   4   1  11   -2.21    7.46
   4   1  11   11.19    6.65
  -5  -1 -11   56.09   11.45
   5   1  11   65.42   12.55
   5   1  11   58.72   11.10
  -6  -1 -11   27.83   10.87
   6   1  11   40.30   10.69
   6   1  11   28.79   11.38
  10  -2 -11  -11.36    8.36
  10  -2 -11    4.06    6.22
 -10   2  11    5.76   10.59
   9  -2 -11   33.87    8.63
   9  -2 -11   36.55    7.26
  -9   2  11   54.28    9.35
  -9   2  11   54.85   10.89
   8  -2 -11   15.63    6.39
   8  -2 -11   10.13    5.71
  -8   2  11   18.03    5.51
  -8   2  11    5.02    7.26
   7  -2 -11   16.70    4.66
  -7   2  11   16.31    5.03
  -7   2  11   27.43    7.66
   6  -2 -11   63.05    6.49
   6  -2 -11   58.72    6.91
  -6   2  11   63.25    9.27
   5  -2 -11  155.76   10.98
   5  -2 -11  158.41    7.77
  -5   2  11  158.11   12.93
  -5   2  11  160.16    9.54
   4  -2 -11  148.66   10.28
   4  -2 -11  141.78    6.20
  -4   2  11  152.56   11.66
  -3   2  11   10.02    4.64
   2  -2 -11  212.73   12.40
  -2   2  11  209.27   11.39
  -2   2  11  232.32   14.35
   1  -2 -11   78.42    7.50
   1  -2 -11   71.29    7.17
  -1   2  11   93.88    9.16
   0  -2 -11  223.38   12.00
   0  -2 -11  227.61   12.70
   0   2  11  207.85   13.73
   0   2  11  211.63    7.74
  -1  -2 -11   76.24    7.61
  -1  -2 -11   90.60    7.92
   1   2  11   82.82    5.93
   1   2  11   86.76    9.35
  -2  -2 -11   43.79    6.51
  -2  -2 -11   49.44    8.90
   2   2  11   45.40    5.75
   2   2  11   57.04    8.90
  -3  -2 -11   86.95    9.51
  -3  -2 -11   84.58    7.96
   3   2  11   83.79   13.20
   3   2  11   76.42    8.49
  -4  -2 -11    5.28    7.70
   4   2  11   17.63    9.94
  -5  -2 -11   75.57   13.42
   5   2  11   40.18   11.22
  10  -3 -11   13.28    7.77
  10  -3 -11   19.43    8.67
 -10   3  11    2.37    8.19
 -10   3  11   -5.48    9.31
   9  -3 -11    9.29    7.61
   9  -3 -11   -0.47    5.28
  -9   3  11   13.73    7.84
  -9   3  11    6.89    6.55
   8  -3 -11   10.90    5.19
   8  -3 -11   13.83    6.12
  -8   3  11   17.30    7.49
  -8   3  11   20.31    5.89
   7  -3 -11   15.84    5.32
   7  -3 -11   11.33    5.06
  -7   3  11   18.94    7.29
  -7   3  11   24.09    6.16
   6  -3 -11   16.95    5.17
  -6   3  11   25.65    7.21
  -6   3  11   25.09    5.30
   5  -3 -11    9.56    4.66
   5  -3 -11   16.55    2.73
  -5   3  11   21.70    4.90
  -5   3  11   14.63    6.69
   4  -3 -11   38.28    6.18
  -4   3  11   38.41    5.70
   3  -3 -11   67.98    7.33
  -3   3  11   69.22    6.36
  -3   3  11   71.92    7.96
   2  -3 -11   73.73    7.40
  -2   3  11   73.87    6.52
  -2   3  11   77.32    8.56
   1  -3 -11  156.44   10.38
   1  -3 -11  162.56   10.95
  -1   3  11  158.71   12.22
   0  -3 -11   40.55    6.81
   0  -3 -11   53.91    7.63
   0   3  11   52.34    7.66
  -1  -3 -11   47.83    7.37
  -1  -3 -11   49.03    6.71
   1   3  11   63.41    9.17
  -2  -3 -11   31.19    7.63
  -2  -3 -11   17.78    4.94
   2   3  11   27.63    9.42
  -3  -3 -11   20.22    4.92
  -3  -3 -11   32.02    8.28
   3   3  11   10.59    9.94
   4   3  11   43.35   11.81
  10  -4 -11   26.11   10.82
 -10   4  11   17.86    9.67
 -10   4  11   13.47    8.52
   9  -4 -11    4.44    7.25
   9  -4 -11   10.82    7.35
  -9   4  11   -9.57    7.83
  -9   4  11   -5.76    7.46
   8  -4 -11   11.69    6.68
   8  -4 -11    9.83    6.10
  -8   4  11   20.28    7.63
  -8   4  11    9.44    5.66
   7  -4 -11   60.45    6.77
   7  -4 -11   65.40    8.36
  -7   4  11   82.78   11.30
  -7   4  11   52.07    8.08
   6  -4 -11   95.61    9.76
  -6   4  11   94.49    8.81
  -6   4  11  116.46   11.36
   5  -4 -11    1.20    4.83
  -5   4  11    8.22    4.46
  -5   4  11    5.22    5.52
   4  -4 -11   47.04    7.85
  -4   4  11   55.53    9.49
  -4   4  11   53.17    6.86
   3  -4 -11   34.55    6.32
  -3   4  11   32.71    5.52
  -3   4  11   42.50    8.94
   2  -4 -11   90.69    8.37
  -2   4  11  105.71    9.30
  -2   4  11   97.47   10.17
   1  -4 -11  119.46   10.22
   1  -4 -11   96.46    9.38
  -1   4  11  116.66   11.23
   0  -4 -11    7.78    4.70
   0  -4 -11   21.98    6.84
   0   4  11   16.51    6.90
  -1  -4 -11   88.88    8.65
  -1  -4 -11   88.71   10.89
   1   4  11   92.51   13.26
  -2  -4 -11    1.91    4.93
  -2  -4 -11   17.22    8.23
   2   4  11   11.94    8.47
  -3  -4 -11   38.83    8.59
   3   4  11   34.74   12.73
  10  -5 -11   10.62    7.93
 -10   5  11   11.85    8.73
   9  -5 -11    5.55    6.84
  -9   5  11    1.27    8.69
  -9   5  11    3.23    7.02
   8  -5 -11    9.89    5.43
  -8   5  11   10.95    8.00
  -8   5  11    7.29    6.31
   7  -5 -11    1.24    5.44
  -7   5  11    0.25    6.54
  -7   5  11   15.41    6.68
   6  -5 -11   18.09    6.10
  -6   5  11   18.59    6.51
   5  -5 -11   32.98    7.21
  -5   5  11   46.40    7.33
  -5   5  11   42.87    7.76
  -4   5  11   55.52    7.22
  -4   5  11   40.74    8.33
   3  -5 -11   40.09    7.18
  -3   5  11   47.13    8.82
  -3   5  11   53.15    7.46
   2  -5 -11   35.11    7.65
   2  -5 -11   35.67    6.89
  -2   5  11   38.08    7.20
  -2   5  11   43.13    8.42
   1  -5 -11   25.27    5.86
   1  -5 -11   22.25    5.87
  -1   5  11   27.91    7.90
   0  -5 -11   48.64    9.25
   0  -5 -11   38.06    6.78
   0   5  11   48.82   11.18
  -1  -5 -11   -2.92    7.72
  -1  -5 -11   10.56    5.59
   1   5  11    2.83    7.86
  -2  -5 -11   30.74    9.77
   2   5  11   54.03   13.19
   3   5  11  -19.98   11.33
  10  -6 -11    2.42    8.45
 -10   6  11   26.93    8.88
   9  -6 -11    5.00    7.43
  -9   6  11   -5.52    8.08
  -9   6  11   -1.22    8.04
   8  -6 -11   21.99    7.10
  -8   6  11   28.48    8.49
  -8   6  11   33.64    8.01
   7  -6 -11   13.25    7.04
  -7   6  11    6.55    7.67
  -7   6  11   16.18    6.42
   6  -6 -11   11.61    5.80
  -6   6  11   13.37    6.90
  -6   6  11   17.21    6.56
   5  -6 -11   10.34    6.46
  -5   6  11    4.48    5.48
  -5   6  11    8.01    7.22
   4  -6 -11   19.87    6.25
  -4   6  11   30.19    5.42
  -4   6  11   31.62    8.09
   3  -6 -11   67.06    8.27
  -3   6  11   52.15    7.63
  -3   6  11   90.61   13.41
   2  -6 -11   15.43    6.09
  -2   6  11   21.58    7.87
   1  -6 -11   43.08    7.97
   1  -6 -11   25.73    6.95
  -1   6  11   39.80    8.74
   0  -6 -11    5.73    6.11
   0   6  11    2.28    8.85
  -1  -6 -11   21.00   10.07
   1   6  11    8.16   12.27
  10  -7 -11   10.28    9.24
 -10   7  11   11.80   10.58
   9  -7 -11   12.23    7.60
  -9   7  11   -5.22    8.49
   8  -7 -11    3.63    7.65
  -8   7  11   -2.42    7.17
  -8   7  11   -3.39    8.00
   7  -7 -11   17.78    6.46
  -7   7  11   32.26    8.16
  -7   7  11   16.12    7.85
   6  -7 -11    8.94    6.52
  -6   7  11   24.00    7.92
  -6   7  11   11.28    6.62
   5  -7 -11   14.16    6.76
  -5   7  11   15.31    6.59
  -5   7  11   21.83    7.77
  -4   7  11    9.89    8.42
  -4   7  11  -10.49    6.61
   3  -7 -11   -1.74    6.24
  -3   7  11    5.50    7.76
  -3   7  11   13.82    7.24
   2  -7 -11   37.48    7.84
   2  -7 -11   45.97    9.12
  -2   7  11   53.28   10.85
   1  -7 -11   20.28    8.47
   1  -7 -11   10.75    7.23
  -1   7  11   40.26   12.79
   0  -7 -11   13.73    7.26
   0  -7 -11    6.75    9.20
   0   7  11   25.87   12.04
   9  -8 -11   -4.00    7.94
  -9   8  11   -1.53   10.37
   8  -8 -11    5.77    7.58
  -8   8  11    5.27    8.11
  -8   8  11    2.87    9.25
   7  -8 -11   -5.35    7.75
  -7   8  11   -0.71    9.34
  -7   8  11   -6.58    7.90
   6  -8 -11  -10.74    7.41
  -6   8  11    5.44    8.72
  -6   8  11   17.01    8.82
   5  -8 -11   22.47    9.19
  -5   8  11   32.70   13.38
   4  -8 -11   19.69    8.35
  -4   8  11   25.67   12.31
  -4   8  11   10.59    8.41
   3  -8 -11   35.09   10.50
   3  -8 -11    1.40    7.03
  -3   8  11   -4.28    9.94
   2  -8 -11   27.46    9.01
   2  -8 -11   16.43    8.53
  -2   8  11   15.78   11.89
   8  -9 -11    3.19   10.45
   7  -9 -11   -1.06    9.33
  -7   9  11   21.53   10.14
  -7   9  11   -5.87    8.53
  -6   9  11   17.81   10.92
  -6   9  11    9.43   11.21
   5  -9 -11   -7.46    8.61
  -5   9  11   10.63   10.94
  -5   9  11   11.19    9.28
   4  -9 -11   23.47   10.90
  -4   9  11    3.28   12.59
  -4   9  11   14.41   10.16
  -2  12 -12    3.67    7.49
   2 -12  12   -2.80   13.84
  -3  12 -12    9.19    8.69
   3 -12  12   11.75   13.70
   3 -12  12    7.67   10.51
  -4  12 -12   -3.19    6.72
   4 -12  12    0.34   13.71
  -5  12 -12   -1.84    7.56
   5 -12  12    7.34   17.06
   1  11 -12  -12.05    7.18
  -1 -11  12   15.24   11.47
   0  11 -12   11.98   13.34
   0  11 -12   -5.83    6.08
   0 -11  12    7.44   10.96
  -1  11 -12    9.44   13.30
  -1  11 -12    0.76    6.56
   1 -11  12   -3.48   14.31
   1 -11  12   13.67    9.92
  -2  11 -12  -11.67    6.44
   2 -11  12   21.88   10.01
  -3  11 -12    2.73    7.04
   3 -11  12   21.27   14.94
   3 -11  12   -0.59    8.35
  -4  11 -12   27.59    9.31
   4 -11  12   -4.40   12.10
   4 -11  12   16.20    9.34
  -5  11 -12   12.26    6.40
   5 -11  12   -1.23   12.33
  -6  11 -12   12.55    6.90
   6 -11  12    3.24   15.08
   2  10 -12    8.93    9.98
   2  10 -12   -2.75    6.23
  -2 -10  12   -8.46   11.04
   1  10 -12   -8.59    6.17
   1  10 -12   -8.32    9.00
  -1 -10  12   -2.00    9.70
   0  10 -12   26.26    9.44
   0  10 -12    7.54    5.79
   0 -10  12   12.43    8.32
  -1  10 -12   11.02    5.82
  -1  10 -12   21.37   10.22
   1 -10  12   11.37    9.13
   1 -10  12    6.97   11.85
  -2  10 -12   -6.11    5.57
   2 -10  12   -5.48   10.64
   2 -10  12   25.68    9.18
  -3  10 -12   15.03    6.45
   3 -10  12   11.37   11.74
  -4  10 -12    2.97    5.87
   4 -10  12   -4.51    7.21
   4 -10  12   14.41   11.69
  -5  10 -12   -1.21    6.52
   5 -10  12   -0.72   11.11
  -6  10 -12   -7.25    7.02
   6 -10  12   -4.71   11.46
  -7  10 -12    6.17    7.85
   7 -10  12    0.28   13.07
   4   9 -12    7.53   10.85
  -4  -9  12    0.92   12.86
   3   9 -12  -10.86    5.65
   3   9 -12   -8.14    9.90
  -3  -9  12   -9.66    9.76
   2   9 -12    8.66    5.69
   2   9 -12   11.00    8.73
  -2  -9  12   18.34    9.49
   1   9 -12    9.68    6.84
   1   9 -12    3.35    5.47
  -1  -9  12    5.96    7.28
   0   9 -12   15.25    7.60
   0   9 -12    1.49    4.38
   0  -9  12   -6.48    7.31
  -1   9 -12    2.31    7.92
  -1   9 -12    6.82    5.58
   1  -9  12   20.02   10.30
   1  -9  12   13.62    7.07
  -2   9 -12    7.63    5.61
   2  -9  12   11.87    9.86
   2  -9  12   14.42    7.17
  -3   9 -12   23.16    6.99
   3  -9  12   24.09   10.38
   3  -9  12   16.05    7.29
  -4   9 -12   16.38    4.84
   4  -9  12   -7.07    9.32
   4  -9  12    3.70    7.57
  -5   9 -12   -4.35    5.21
   5  -9  12    0.20    6.85
   5  -9  12   -5.57    9.71
  -6   9 -12    5.15    5.65
   6  -9  12   10.03   11.17
  -7   9 -12   -7.89    7.19
   7  -9  12    6.61   12.65
  -8   9 -12    2.26    8.83
   5   8 -12   17.80   12.55
  -5  -8  12   -1.53   12.38
   4   8 -12    5.02    9.77
   4   8 -12    8.02    6.13
  -4  -8  12  -12.48    9.30
   3   8 -12    3.98    4.95
   3   8 -12    9.20    8.00
  -3  -8  12   15.06    8.08
   2   8 -12   32.63    8.60
   2   8 -12   24.42    5.52
  -2  -8  12   15.35    7.97
   1   8 -12   26.34    6.67
  -1  -8  12   18.50    8.65
   0   8 -12   13.49    4.48
   0   8 -12   19.35    7.30
   0  -8  12   11.62    7.76
  -1   8 -12   16.94    4.64
   1  -8  12   18.91    6.64
   1  -8  12   24.48    8.87
  -2   8 -12   -0.33    3.79
   2  -8  12    3.31    6.21
   2  -8  12   10.45    9.79
  -3   8 -12   57.38    6.98
   3  -8  12   76.24   14.23
   3  -8  12   51.29    9.84
  -4   8 -12   23.59    5.56
   4  -8  12   39.19   10.73
   4  -8  12   32.29    7.86
  -5   8 -12   12.50    5.10
   5  -8  12   17.21    6.89
   5  -8  12   21.46   11.04
  -6   8 -12    9.41    6.50
  -6   8 -12   11.96    5.87
   6  -8  12    6.68   11.90
  -7   8 -12    0.40    6.95
  -7   8 -12    0.61    6.03
  -8   8 -12   19.75    7.18
  -8   8 -12    1.01    8.33
   8  -8  12   11.40   13.15
   6   7 -12   11.95   12.20
  -6  -7  12  -13.80   15.10
   5   7 -12   11.45   10.07
  -5  -7  12    0.70   10.83
   4   7 -12    1.48    7.25
   4   7 -12    5.96    4.63
  -4  -7  12  -11.10    8.74
   3   7 -12   10.43    4.49
   3   7 -12    9.47    6.53
  -3  -7  12    7.70    7.84
   2   7 -12   19.02    6.25
   2   7 -12   14.08    4.70
  -2  -7  12   -1.77    7.52
   1   7 -12   50.54    9.91
   1   7 -12   37.79    6.18
   0   7 -12   29.40    6.59
   0   7 -12   38.10    5.60
   0  -7  12   29.85    8.02
  -1   7 -12   31.95    5.37
   1  -7  12   32.57    7.62
   1  -7  12   27.75    8.81
  -2   7 -12    4.96    4.16
   2  -7  12    2.37    8.44
   2  -7  12   -0.55    5.21
  -3   7 -12    0.61    3.78
   3  -7  12    3.28    8.14
   3  -7  12    1.34    5.99
  -4   7 -12    9.21    3.79
  -4   7 -12    5.62    3.99
   4  -7  12    2.31    5.77
   4  -7  12   18.97    9.25
  -5   7 -12    6.16    4.55
  -5   7 -12   14.70    7.78
   5  -7  12    1.43    9.74
   5  -7  12    8.31    6.12
  -6   7 -12   10.65    6.29
   6  -7  12   29.76    9.85
   6  -7  12    5.79    5.72
  -7   7 -12    4.46    5.73
  -7   7 -12    2.53    7.08
   7  -7  12    9.43   11.89
  -8   7 -12   11.64    9.13
  -8   7 -12   -9.00    7.54
   8  -7  12   -1.90   14.10
   6   6 -12   -8.47    9.17
  -6  -6  12   -0.47   13.17
   5   6 -12    5.42    4.98
   5   6 -12   13.96    8.57
  -5  -6  12    3.93    8.47
   4   6 -12   32.56    8.07
   4   6 -12   16.00    5.00
  -4  -6  12   21.04    8.74
   3   6 -12   35.86    6.50
  -3  -6  12   34.99    8.58
   2   6 -12   36.36    6.35
   2   6 -12   38.02    6.31
  -2  -6  12   40.26    8.86
   1   6 -12   10.74    4.08
   1   6 -12   19.27    5.22
  -1  -6  12   17.99    5.93
   0   6 -12   20.04    6.24
   0   6 -12   25.66    5.14
   0  -6  12   23.26    6.56
  -1   6 -12   77.94    7.74
   1  -6  12   63.81    8.97
   1  -6  12   70.68   11.56
  -2   6 -12  114.32    8.82
   2  -6  12   88.57   11.94
   2  -6  12   98.85   10.12
  -3   6 -12   43.17    5.20
  -3   6 -12   48.89    6.35
   3  -6  12   43.68    9.08
   3  -6  12   42.78    7.49
  -4   6 -12   38.25    5.71
   4  -6  12   19.03    9.18
   4  -6  12   28.76    6.79
  -5   6 -12    4.76    4.63
  -5   6 -12    1.85    4.17
   5  -6  12   22.41    9.63
   5  -6  12   -5.91    5.80
  -6   6 -12   28.61    6.51
   6  -6  12   28.63   11.36
  -7   6 -12   21.88    6.14
  -7   6 -12   41.48    7.76
   7  -6  12   18.35   11.23
  -8   6 -12   11.00    8.50
   8  -6  12   14.51   14.41
   7   5 -12    7.85   13.13
  -7  -5  12   -9.27   14.71
   6   5 -12   11.61    8.37
   6   5 -12   -8.39    5.15
  -6  -5  12   -7.36    9.64
   5   5 -12   17.88    7.23
   5   5 -12    4.99    5.01
  -5  -5  12   -6.54    8.04
   4   5 -12   19.45    7.16
   4   5 -12   15.24    4.65
  -4  -5  12   19.25    7.67
   3   5 -12   15.40    5.57
   3   5 -12   10.89    3.81
  -3  -5  12    9.75    5.88
   2   5 -12   61.35    6.75
   2   5 -12   48.98    6.42
  -2  -5  12   64.33    9.66
   1   5 -12   25.20    4.72
   1   5 -12   25.62    5.07
  -1  -5  12   12.68    5.50
   0   5 -12    9.57    5.06
   0   5 -12   15.33    4.01
   0  -5  12   24.47    5.48
  -1   5 -12    6.58    3.34
   1  -5  12   14.41    5.33
   1  -5  12    4.63    6.27
  -2   5 -12   34.33    3.87
  -2   5 -12   23.30    5.42
   2  -5  12   45.34    6.44
   2  -5  12   42.46    9.38
  -3   5 -12   43.29    5.94
  -3   5 -12   43.68    5.12
   3  -5  12   47.63    9.02
   3  -5  12   54.64    9.86
  -4   5 -12   23.63    5.03
  -4   5 -12   39.82    5.81
   4  -5  12   26.91    8.01
   4  -5  12   36.05    6.64
  -5   5 -12   33.14    6.27
  -5   5 -12   35.30    6.16
   5  -5  12   27.43    9.68
   5  -5  12   33.31    6.92
  -6   5 -12    7.89    6.08
  -6   5 -12    3.24    5.73
   6  -5  12  -10.63    9.43
   6  -5  12    9.83    6.21
  -7   5 -12    4.63    6.43
  -7   5 -12    4.08    7.25
   7  -5  12    1.35   11.47
   7  -5  12   -1.89    7.04
  -8   5 -12   30.08   10.88
   8  -5  12   28.20   12.90
   8   4 -12   36.00   13.18
   7   4 -12   24.84   10.27
   7   4 -12   25.87    6.13
  -7  -4  12   13.56   12.32
   6   4 -12   15.50    4.56
   6   4 -12   18.88    7.71
  -6  -4  12   14.37    8.78
   5   4 -12   50.58    9.70
   5   4 -12   44.91    6.36
  -5  -4  12   63.36   12.35
   4   4 -12   75.58    8.36
   4   4 -12   67.22    7.33
  -4  -4  12   83.70   10.87
   3   4 -12   14.13    4.77
   3   4 -12   12.73    3.29
  -3  -4  12   10.55    5.68
   2   4 -12   27.59    5.01
   2   4 -12   31.33    5.75
  -2  -4  12   17.85    6.03
   1   4 -12   79.42    7.06
   1   4 -12   81.89    6.84
  -1  -4  12   79.93    8.54
   0   4 -12  127.93    9.02
   0  -4  12  127.33   10.57
   0  -4  12  123.86   10.66
  -1   4 -12   93.56    7.39
  -1   4 -12   94.86    5.09
   1  -4  12   92.15    9.14
   1  -4  12   95.66   10.12
  -2   4 -12   25.08    3.82
  -2   4 -12   22.80    4.78
   2  -4  12   31.31    5.97
   2  -4  12   14.49    6.91
  -3   4 -12   24.65    4.74
  -3   4 -12   19.97    5.02
   3  -4  12   15.47    6.92
   3  -4  12   22.30    5.90
  -4   4 -12   30.18    5.25
   4  -4  12   22.02    6.47
   4  -4  12   21.01    8.25
  -5   4 -12   84.74    8.78
  -5   4 -12   61.68    8.38
   5  -4  12   87.70   12.87
   5  -4  12   69.37   10.55
  -6   4 -12   14.98    5.08
  -6   4 -12   -1.10    6.43
   6  -4  12   10.23    7.28
   6  -4  12   25.38   10.20
  -7   4 -12   21.45    7.46
  -7   4 -12    6.61    6.30
   7  -4  12    1.36    8.47
   7  -4  12   11.54   13.86
   8   3 -12   11.21   10.03
  -8  -3  12    4.40   13.00
   7   3 -12   32.80    9.17
   6   3 -12    9.29    4.54
   6   3 -12    9.19    7.33
  -6  -3  12   12.55    4.25
  -6  -3  12    9.60    8.91
   5   3 -12    6.33    3.78
   5   3 -12    8.10    5.20
  -5  -3  12    8.82    3.31
  -5  -3  12    4.27    6.63
   4   3 -12   67.98    6.97
   4   3 -12   83.98    8.04
  -4  -3  12   69.54    4.44
  -4  -3  12   62.78    9.33
   3   3 -12   44.31    6.36
   3   3 -12   41.25    5.52
  -3  -3  12   33.59    8.29
  -3  -3  12   37.65    2.84
   2   3 -12   26.07    6.17
  -2  -3  12   30.70    6.37
   1   3 -12   22.81    4.25
   1   3 -12   25.96    4.89
   1   3 -12   25.67    2.74
  -1  -3  12   21.94    5.94
   0   3 -12   38.40    4.87
   0   3 -12   44.06    3.72
   0  -3  12   47.97    7.52
   0  -3  12   41.24    6.97
  -1   3 -12  194.51    8.79
  -1   3 -12  183.81   11.35
   1  -3  12  189.45   12.49
   1  -3  12  198.14   13.31
  -2   3 -12   77.47    6.27
  -2   3 -12   72.22    6.86
   2  -3  12   94.26    9.13
  -3   3 -12   50.33    6.70
  -3   3 -12   49.76    6.64
   3  -3  12   45.30    8.72
   3  -3  12   45.83    8.37
  -4   3 -12   38.10    5.99
  -4   3 -12   42.38    6.67
   4  -3  12   49.15    8.83
   4  -3  12   47.47    9.66
  -5   3 -12    1.93    5.07
  -5   3 -12    5.84    5.74
   5  -3  12   11.49    6.68
   5  -3  12   13.00    8.69
  -6   3 -12   31.80    7.96
  -6   3 -12   22.12    5.80
   6  -3  12   36.31    8.75
   6  -3  12   29.77   10.69
  -7   3 -12   -0.77    8.28
  -7   3 -12    4.14    6.38
   7  -3  12   -7.49   11.42
   7  -3  12   -3.17    8.54
   9   2 -12   12.75   14.29
  -9  -2  12  -44.60   26.08
   8   2 -12   10.34    5.66
  -8  -2  12   -5.38   12.24
  -8  -2  12   16.44    6.21
   7   2 -12   21.33    5.34
   7   2 -12   33.08    8.07
  -7  -2  12   32.04   10.51
  -7  -2  12   33.95    5.98
   6   2 -12   84.44    8.92
   6   2 -12   80.47   10.03
  -6  -2  12   75.65    6.99
  -6  -2  12   79.25   12.40
   5   2 -12   42.04    7.38
   5   2 -12   37.32    6.76
  -5  -2  12   43.05    8.92
  -5  -2  12   39.35    4.90
   4   2 -12   49.84    6.18
   4   2 -12   36.92    6.16
  -4  -2  12   47.16    4.35
  -4  -2  12   56.60    9.84
   3   2 -12   -0.61    3.32
   3   2 -12    8.75    3.48
  -3  -2  12    6.59    5.45
   2   2 -12   36.98    3.58
   2   2 -12   39.79    4.80
   2   2 -12   41.35    6.04
  -2  -2  12   25.74    6.14
   1   2 -12  222.78    9.07
   1   2 -12  225.05   12.32
  -1  -2  12  223.18   12.50
  -1  -2  12  218.31   14.34
   0   2 -12   21.07    3.99
   0   2 -12   21.14    3.94
   0  -2  12   18.34    5.56
   0  -2  12   23.68    5.52
  -1   2 -12   75.83    6.13
  -1   2 -12   98.07    7.89
   1  -2  12   89.75    8.87
   1  -2  12   85.20    8.51
  -2   2 -12   25.40    4.77
  -2   2 -12   25.39    5.40
   2  -2  12   25.81    6.23
   2  -2  12   17.42    5.32
  -3   2 -12  169.09   10.39
  -3   2 -12  168.05   10.68
   3  -2  12  169.61   11.97
   3  -2  12  178.18   12.53
  -4   2 -12   81.81    9.51
  -4   2 -12   81.03    7.96
   4  -2  12   98.59   10.51
   4  -2  12   65.71   10.20
  -5   2 -12   14.27    4.94
   5  -2  12    7.67    8.21
   5  -2  12   14.05    6.59
  -6   2 -12   34.21    8.23
   6  -2  12   29.88    9.34
   6  -2  12   21.43   10.44
  -7   2 -12   -2.50    7.88
   7  -2  12   14.16   10.09
   7  -2  12   11.87   12.30
   9   1 -12   -7.33    6.75
   9   1 -12   15.45   13.95
  -9  -1  12   19.89   13.85
  -9  -1  12    2.35    7.49
   8   1 -12   10.89    5.84
  -8  -1  12    2.82   10.12
  -8  -1  12   -6.49    5.67
   7   1 -12   10.14    4.56
   7   1 -12    2.82    6.87
  -7  -1  12    6.90    4.91
  -7  -1  12    7.93    9.87
   6   1 -12   41.60    7.57
  -6  -1  12   39.91    5.88
  -6  -1  12   42.73    8.85
   5   1 -12   56.25    7.20
   5   1 -12   61.95    6.93
  -5  -1  12   61.61    5.53
  -5  -1  12   62.31    9.15
   4   1 -12   21.94    4.98
   4   1 -12   19.40    4.20
  -4  -1  12   25.08    6.88
  -4  -1  12   20.65    3.70
   3   1 -12   17.72    3.71
   3   1 -12   10.22    3.48
  -3  -1  12   11.39    4.87
  -3  -1  12   12.00    3.16
   2   1 -12   23.51    4.00
   2   1 -12   15.48    3.80
  -2  -1  12   18.41    3.35
  -2  -1  12   18.73    5.99
   1   1 -12  224.71   12.49
   1   1 -12  238.96   10.61
  -1  -1  12  241.02   12.19
  -1  -1  12  227.07   14.80
   0   1 -12  211.23   10.31
   0   1 -12  202.30   11.70
   0  -1  12  229.44   11.62
   0  -1  12  209.93   14.13
  -1   1 -12   15.88    4.26
  -1   1 -12   29.75    5.00
   1  -1  12   28.42    5.63
   1  -1  12   17.31    5.11
  -2   1 -12   79.29    7.55
  -2   1 -12   65.87    6.77
   2  -1  12   63.39    8.56
   2  -1  12   64.63    7.69
  -3   1 -12   25.93    6.18
  -3   1 -12   35.23    5.84
   3  -1  12   34.20    7.78
   3  -1  12   26.30    8.31
  -4   1 -12   80.03    7.86
  -4   1 -12   86.05    9.60
   4  -1  12   65.31    9.87
   4  -1  12   76.71   11.21
  -5   1 -12   36.83    6.83
  -5   1 -12   28.73    8.18
   5  -1  12    8.09    8.32
   5  -1  12   18.65    8.60
  -6   1 -12   19.44    8.58
   6  -1  12    0.06    9.83
   6  -1  12    9.23    9.89
  10   0 -12   -0.69   24.91
 -10   0  12   25.20   16.53
 -10   0  12    3.42    9.05
   9   0 -12    8.86    6.86
   9   0 -12   22.28   11.90
  -9   0  12   28.22   13.79
  -9   0  12    6.38    7.30
   8   0 -12   33.41    9.91
   8   0 -12   23.09    7.37
  -8   0  12   39.89    7.65
  -8   0  12   26.30   10.18
   7   0 -12   48.99    9.57
   7   0 -12   32.74    7.02
  -7   0  12   49.55    7.28
  -7   0  12   45.10    9.50
   6   0 -12   40.54    7.40
   6   0 -12   46.70    7.41
  -6   0  12   50.02   10.55
  -6   0  12   40.36    7.59
   5   0 -12   19.77    4.42
   5   0 -12   14.97    5.32
  -5   0  12   21.26    4.06
  -5   0  12   23.76    7.39
   4   0 -12   22.13    4.78
   4   0 -12   29.71    4.60
  -4   0  12   36.61    4.66
  -4   0  12   36.38    7.28
   3   0 -12  229.80   13.02
   3   0 -12  215.36    9.47
  -3   0  12  240.51   15.61
  -3   0  12  227.38   10.72
   2   0 -12   80.10    7.35
  -2   0  12   92.49    6.32
  -2   0  12   90.20    9.22
  -2   0  12   94.93    6.84
   1   0 -12  108.63    8.26
   1   0 -12  115.58    7.12
  -1   0  12   96.40    6.94
  -1   0  12   82.98    9.01
   0   0 -12   -3.79    3.28
   0   0 -12    7.89    3.31
   0   0  12    4.50    4.15
   0   0  12    0.57    3.76
  -1   0 -12  200.63   11.23
  -1   0 -12  216.98   12.38
   1   0  12  200.37   14.11
   1   0  12  199.33   10.77
  -2   0 -12  188.45   11.61
  -2   0 -12  175.37   11.28
   2   0  12  195.01   11.39
   2   0  12  209.87   14.49
  -3   0 -12   15.43    6.05
   3   0  12   20.30    6.89
  -4   0 -12   60.22    7.36
  -4   0 -12   67.91    8.20
   4   0  12   57.43   10.76
   4   0  12   52.31    9.79
  -5   0 -12   -4.10    8.86
  -5   0 -12    8.26    5.36
   5   0  12   -6.73    8.52
   5   0  12   -2.99    9.10
  -6   0 -12   23.95   10.81
   6   0  12    7.86    9.93
  10  -1 -12    1.92   10.45
  10  -1 -12    2.79    8.21
 -10   1  12   11.74    9.55
 -10   1  12  -11.44   13.44
   9  -1 -12  -10.24    6.29
   9  -1 -12   13.62   11.38
  -9   1  12   14.31   11.48
  -9   1  12   -1.34    6.99
   8  -1 -12   -0.12    6.39
   8  -1 -12   16.42    7.50
  -8   1  12   -8.13    8.58
  -8   1  12    7.61    5.64
   7  -1 -12   57.13    7.43
   7  -1 -12   39.80    8.16
  -7   1  12   53.06    7.42
  -7   1  12   49.29   10.61
   6  -1 -12   43.94    6.34
   6  -1 -12   47.99    7.69
  -6   1  12   38.33    5.92
   5  -1 -12    6.38    4.05
   5  -1 -12    4.57    3.54
  -5   1  12    5.60    5.27
  -5   1  12    9.40    4.52
   4  -1 -12   41.86    4.63
   4  -1 -12   36.05    6.70
   3  -1 -12  106.97    8.77
  -3   1  12   76.09    6.44
  -3   1  12   96.73    6.68
  -3   1  12   97.87    9.27
   2  -1 -12  256.25   13.74
  -2   1  12  245.48    9.63
  -2   1  12  263.16   12.11
  -2   1  12  250.87   15.41
   1  -1 -12   20.17    4.53
   1  -1 -12   16.07    3.98
  -1   1  12   13.22    3.10
  -1   1  12   14.90    5.97
   0  -1 -12   42.31    5.45
   0  -1 -12   51.85    6.72
   0   1  12   38.56    7.50
   0   1  12   39.45    5.08
  -1  -1 -12   15.37    5.07
  -1  -1 -12   21.71    4.92
   1   1  12   21.19    4.83
   1   1  12   20.12    6.22
  -2  -1 -12  144.95    9.95
  -2  -1 -12  147.82   10.81
   2   1  12  160.97   13.13
   2   1  12  162.21    9.71
  -3  -1 -12   90.91    9.54
  -3  -1 -12  100.28    8.83
   3   1  12  103.03   12.47
   3   1  12  121.57   12.24
  -4  -1 -12   -1.73    7.19
  -4  -1 -12    6.73    4.75
   4   1  12    7.56   13.98
   4   1  12   -7.18    7.72
  -5  -1 -12   44.22   11.68
  10  -2 -12   16.26    7.63
 -10   2  12   -0.85    8.97
 -10   2  12   -1.64   11.73
   9  -2 -12   11.31    6.26
   9  -2 -12   10.48    8.23
  -9   2  12    7.39    9.54
  -9   2  12   16.40    7.30
   8  -2 -12    8.28    7.06
   8  -2 -12    9.13    5.83
  -8   2  12   21.00    6.49
  -8   2  12   31.22    8.88
  -7   2  12   24.24    6.25
  -7   2  12   22.98    7.37
   6  -2 -12   20.07    4.72
   6  -2 -12    9.91    4.84
  -6   2  12   19.24    7.74
  -6   2  12   16.86    4.72
   5  -2 -12   76.63    8.62
   5  -2 -12   91.23    5.80
  -5   2  12   80.89   11.02
  -5   2  12   88.21    7.49
   4  -2 -12   94.14    4.89
   4  -2 -12  107.24    8.97
  -4   2  12   93.49    7.73
  -4   2  12   97.79   10.08
   3  -2 -12   51.49    7.66
  -3   2  12   54.08    9.90
  -3   2  12   54.55    5.86
   2  -2 -12   23.79    5.41
  -2   2  12   30.88    6.80
  -2   2  12   27.86    5.44
   1  -2 -12   78.57    8.20
   1  -2 -12   68.80    7.02
  -1   2  12   57.81   10.03
   0  -2 -12  265.79   13.88
   0  -2 -12  233.20   13.93
   0   2  12  250.53   15.74
  -1  -2 -12   20.37    6.05
  -1  -2 -12   19.51    4.90
   1   2  12   13.96    7.02
  -2  -2 -12   33.87    6.09
  -2  -2 -12   41.26    7.51
   2   2  12   47.85    9.50
  -3  -2 -12   13.83    7.05
  -3  -2 -12   10.01    5.01
   3   2  12   -9.47    8.19
  -4  -2 -12   13.04   14.34
  10  -3 -12    2.12    7.35
  10  -3 -12  -11.34    9.01
 -10   3  12   -0.99    8.94
 -10   3  12   11.17   10.95
   9  -3 -12   20.67    8.37
  -9   3  12   37.83   10.84
  -9   3  12   20.23    8.25
   8  -3 -12   10.04    5.61
   8  -3 -12   14.50    7.03
  -8   3  12    9.53    6.29
  -8   3  12   14.76    8.02
   7  -3 -12    8.17    5.02
   7  -3 -12   14.50    5.28
  -7   3  12   11.65    5.17
  -7   3  12    0.95    7.27
   6  -3 -12   68.19    9.20
   6  -3 -12   65.66    5.62
  -6   3  12   73.02   11.05
  -6   3  12   69.54    7.85
   5  -3 -12    6.23    4.47
  -5   3  12    9.61    6.52
  -5   3  12    3.72    4.13
   4  -3 -12  141.03   10.94
  -4   3  12  142.72    9.46
  -4   3  12  144.37   12.74
   3  -3 -12   48.37    7.45
  -3   3  12   62.44    6.88
  -3   3  12   63.03    9.57
   2  -3 -12   -0.66    4.27
   2  -3 -12    0.86    4.04
  -2   3  12   -3.72    5.46
  -2   3  12    3.77    3.68
   1  -3 -12   13.96    5.29
   1  -3 -12    7.28    5.14
  -1   3  12   10.88    5.60
   0  -3 -12   48.18    8.95
   0  -3 -12   74.32    8.15
   0   3  12   65.58   10.88
  -1  -3 -12  134.18   11.99
  -1  -3 -12  121.25    9.92
   1   3  12  150.33   13.44
  -2  -3 -12   31.65    9.72
  -2  -3 -12   10.58    5.36
   2   3  12    9.73    7.81
  -3  -3 -12   21.92    8.85
   3   3  12   11.82   17.33
  -4  -3 -12   37.67   11.21
   4   3  12   15.06   10.59
  10  -4 -12    0.84    7.46
 -10   4  12    2.33    9.20
  -9   4  12    0.02    9.66
  -9   4  12    4.92    8.12
   8  -4 -12   13.95    6.32
  -8   4  12    1.12    7.85
   7  -4 -12   21.34    6.20
  -7   4  12   40.87    7.42
  -7   4  12   26.98    9.05
   6  -4 -12   25.67    6.22
  -6   4  12   32.35    7.10
  -6   4  12   31.64    8.21
   5  -4 -12   26.59    6.60
  -5   4  12   32.13    6.29
   4  -4 -12   36.90    6.96
  -4   4  12   34.24    6.57
  -4   4  12   25.55    6.94
   3  -4 -12    9.31    4.35
  -3   4  12    1.83    5.42
  -3   4  12    8.50    4.69
   2  -4 -12  172.93   11.71
   2  -4 -12  155.47   11.68
  -2   4  12  157.12   13.11
   1  -4 -12   61.43    8.67
   1  -4 -12   40.75    7.01
  -1   4  12   56.76   11.85
   0  -4 -12   11.25    5.76
   0  -4 -12   26.62    8.24
   0   4  12   15.78    7.02
  -1  -4 -12   13.21    8.16
  -1  -4 -12   18.81    5.87
   1   4  12    5.14    8.68
  -2  -4 -12   26.08   11.47
  -2  -4 -12   18.43    6.28
   2   4  12   15.48    9.92
  -3  -4 -12   36.44    9.74
   3   4  12   25.37   12.08
  10  -5 -12    4.01    7.31
 -10   5  12    2.84   17.35
   9  -5 -12    3.22    6.11
  -9   5  12   11.28    9.22
  -9   5  12   -2.35    8.22
   8  -5 -12   14.44    6.39
  -8   5  12    3.93    6.74
  -8   5  12   26.30    8.81
   7  -5 -12    6.97    5.74
  -7   5  12   11.76    7.51
  -7   5  12   13.92    6.56
   6  -5 -12   22.71    7.26
  -6   5  12   34.22    8.21
  -6   5  12   39.68    7.53
  -5   5  12   53.84    8.47
  -5   5  12   49.28    9.43
   4  -5 -12    4.02    4.97
  -4   5  12    7.26    7.16
  -4   5  12    4.15    5.20
   3  -5 -12   24.43    5.76
  -3   5  12   23.00    6.70
  -3   5  12   20.97    8.83
   2  -5 -12    1.55    6.36
   2  -5 -12   10.06    5.37
  -2   5  12    6.64    7.11
   1  -5 -12   53.00    8.95
   1  -5 -12   76.66    9.02
  -1   5  12   73.79   12.80
   0  -5 -12   48.58    9.04
   0  -5 -12   34.47    7.51
   0   5  12   40.62   10.36
  -1  -5 -12   12.40   10.26
   1   5  12  -13.61    9.83
  -2  -5 -12   14.69    9.65
   2   5  12    4.11   11.07
  10  -6 -12    4.09    8.18
 -10   6  12  -19.65   10.76
   9  -6 -12    2.86    6.80
  -9   6  12    0.84    8.54
  -9   6  12   -7.79    8.75
   8  -6 -12   16.32    6.79
  -8   6  12   26.49    8.79
   7  -6 -12    5.04    6.31
  -7   6  12    2.30    8.78
  -7   6  12    1.35    6.24
   6  -6 -12   13.43    7.07
  -6   6  12   34.36    8.27
  -6   6  12   20.91    8.52
   5  -6 -12   14.28    7.46
  -5   6  12    4.68    5.58
  -5   6  12   11.53    8.25
   4  -6 -12   59.98   10.24
  -4   6  12   71.27   11.67
  -4   6  12   58.83    8.51
   3  -6 -12   30.73    6.78
  -3   6  12   33.18    7.51
  -3   6  12   33.80   10.30
   2  -6 -12    8.16    6.31
   2  -6 -12    1.79    7.10
  -2   6  12    8.03    8.34
   1  -6 -12   17.65    7.57
   1  -6 -12   25.02    8.27
  -1   6  12   30.44   13.38
   0  -6 -12    5.55    9.11
   0  -6 -12    8.51    6.42
   0   6  12   -7.71    9.90
   1   6  12   92.85   17.66
   9  -7 -12  -11.32    8.35
  -9   7  12    3.07    9.51
   8  -7 -12   -2.05    8.79
  -8   7  12   -7.94    8.99
   7  -7 -12    5.86    7.55
  -7   7  12   -0.28    7.62
   6  -7 -12   13.80    8.02
  -6   7  12    1.67    7.44
  -6   7  12   19.80    9.23
   5  -7 -12   -8.38    6.63
  -5   7  12    9.00    7.04
   4  -7 -12   11.95    8.78
  -4   7  12   19.28    7.82
  -4   7  12   18.32    9.05
   3  -7 -12   44.70   11.71
  -3   7  12   45.32   11.79
  -3   7  12   40.10    8.85
   2  -7 -12   32.88    7.95
   2  -7 -12   14.81    8.70
  -2   7  12   44.63   13.01
   1  -7 -12   -9.14    7.20
   1  -7 -12    8.40    9.56
  -1   7  12   20.84   10.37
   8  -8 -12   -4.83    9.29
  -8   8  12   15.47   10.40
  -8   8  12   -2.00   10.35
   7  -8 -12   -2.00    9.01
  -7   8  12    2.75    8.30
  -7   8  12   11.62   10.47
   6  -8 -12   10.59    9.49
  -6   8  12   25.49    9.22
   5  -8 -12   13.85   10.01
  -5   8  12   17.88    8.26
  -5   8  12    2.40    9.14
  -4   8  12    4.37   19.88
  -4   8  12   -9.96    9.30
   3  -8 -12    8.25    8.67
   3  -8 -12   20.80    9.12
  -3   8  12    3.71   10.61
   0  11 -13   -1.61    6.20
   0  11 -13   28.51   12.62
  -1  11 -13  -12.70    8.79
   1 -11  13   -9.95   10.67
   1 -11  13  -20.13   15.71
  -2  11 -13    3.29    6.43
   2 -11  13   -7.86   10.17
   2 -11  13   10.56   12.72
  -3  11 -13    0.52    7.19
   3 -11  13   -5.80    9.42
   3 -11  13   39.52   16.64
  -4  11 -13    7.70    6.36
   4 -11  13   -7.28   15.13
  -5  11 -13   -4.65    7.67
   5 -11  13    0.17   15.55
  -6  11 -13   -0.89    7.37
   2  10 -13   -4.34   10.15
   2  10 -13  -11.02    6.45
  -2 -10  13    1.27    9.33
   1  10 -13   14.37   12.08
   1  10 -13    0.99    6.63
  -1 -10  13   -1.98   10.72
   0  10 -13    7.29    6.32
   0  10 -13   -0.73   11.02
   0 -10  13   27.58   10.91
  -1  10 -13   -0.36    6.62
   1 -10  13    0.39   14.30
   1 -10  13    9.90    8.94
  -2  10 -13   -2.37    6.01
   2 -10  13   -1.60   12.48
   2 -10  13  -11.40    9.04
  -3  10 -13   -6.81    5.16
   3 -10  13    4.80    8.07
   3 -10  13   10.90   11.48
  -4  10 -13    9.35   11.01
   4 -10  13   18.37    8.91
   4 -10  13   22.79   21.91
   5 -10  13   45.72   14.86
  -6  10 -13   -1.69    6.41
   6 -10  13   -4.02   15.20
   3   9 -13    3.65   10.90
  -3  -9  13   -8.97    9.22
   2   9 -13  -17.65   14.83
   2   9 -13   15.52    5.97
  -2  -9  13    7.05    9.22
   1   9 -13   12.35    8.58
   1   9 -13    8.45    5.73
  -1  -9  13   12.41    8.61
   0   9 -13    0.54    7.94
   0   9 -13    7.06    4.98
   0  -9  13    3.43    8.34
  -1   9 -13   24.20    5.66
   1  -9  13   43.45   12.01
   1  -9  13   39.55    8.90
  -2   9 -13    9.65    5.14
   2  -9  13   14.31    7.39
   2  -9  13   18.37   11.19
  -3   9 -13    9.56    5.34
   3  -9  13   -7.13   11.87
   3  -9  13   -6.71    7.37
  -4   9 -13    1.08    5.32
   4  -9  13    6.75   11.07
   4  -9  13   -5.94    8.09
  -5   9 -13    6.53    5.31
   5  -9  13   25.49   13.59
   5  -9  13   16.46   11.32
  -6   9 -13   -7.08    6.18
   6  -9  13  -12.34   12.95
  -7   9 -13    2.97    7.08
   7  -9  13   28.54   15.54
   4   8 -13   18.74   11.80
   4   8 -13    2.89    6.16
  -4  -8  13   -0.18    9.97
   3   8 -13   -4.14    7.63
   3   8 -13    6.50    5.62
  -3  -8  13   -9.13    7.71
   2   8 -13   14.38    7.58
   2   8 -13   17.61    5.82
  -2  -8  13   -0.46    7.66
   1   8 -13   28.88    5.93
   1   8 -13   31.59    7.65
  -1  -8  13   21.02    7.90
   0   8 -13    4.37    6.55
   0   8 -13   -1.52    5.00
   0  -8  13    2.87    6.54
  -1   8 -13    8.55    4.97
   1  -8  13   10.79    6.73
   1  -8  13    8.57   10.04
  -2   8 -13   15.30    5.17
   2  -8  13   20.78   10.76
   2  -8  13   18.78    6.97
  -3   8 -13   43.62    6.50
   3  -8  13   38.43   10.48
   3  -8  13   63.14   10.80
  -4   8 -13   22.70    6.29
   4  -8  13   29.41    8.50
   4  -8  13   11.63   10.94
  -5   8 -13   -5.78    6.02
   5  -8  13  -10.53   11.56
   5  -8  13    3.26    7.03
  -6   8 -13   -9.40    6.35
   6  -8  13    7.85   12.48
  -7   8 -13    9.31    7.60
   7  -8  13   -2.68   14.19
   5   7 -13   -6.83    9.27
   5   7 -13   -2.38    8.66
  -5  -7  13   24.04   12.19
   4   7 -13   -1.05    5.40
   4   7 -13   -2.75    7.57
  -4  -7  13   -5.71    8.06
   3   7 -13    7.87    7.15
   3   7 -13    2.60    5.03
  -3  -7  13    7.99    9.34
   2   7 -13   19.11    7.11
  -2  -7  13   23.98    7.79
   1   7 -13   35.17    6.76
   1   7 -13   39.53    8.37
   0   7 -13   36.80    7.57
   0   7 -13   41.05    5.82
   0  -7  13   24.80    8.53
  -1   7 -13    5.56    3.87
   1  -7  13    3.99    5.64
   1  -7  13  -13.52    7.95
  -2   7 -13   23.87    5.82
   2  -7  13   33.28    7.58
   2  -7  13   22.44   10.02
  -3   7 -13   22.22    4.99
   3  -7  13   24.98   10.91
   3  -7  13   31.41    7.21
  -4   7 -13   29.78    6.69
   4  -7  13   49.56   10.88
   4  -7  13   46.47    9.53
  -5   7 -13   17.15    5.71
   5  -7  13   18.59    7.06
   5  -7  13   -6.59   10.73
  -6   7 -13   15.44    6.67
   6  -7  13   -9.37   11.69
   6  -7  13    9.03   12.41
  -7   7 -13    6.95    8.07
  -7   7 -13   -8.09    6.33
   7  -7  13   -6.59   11.79
   5   6 -13   11.28    5.24
   5   6 -13   -0.66    8.56
  -5  -6  13    4.17    9.32
   4   6 -13   25.99    8.54
   4   6 -13    7.10    5.17
  -4  -6  13   11.16    8.19
   3   6 -13   38.93    7.23
   3   6 -13   47.85    9.12
  -3  -6  13   63.64   10.83
   2   6 -13   22.73    4.95
   2   6 -13   24.06    6.17
  -2  -6  13   24.00    7.33
   1   6 -13   39.29    6.81
   1   6 -13   37.53    7.65
  -1  -6  13   48.08    9.51
   0   6 -13    4.47    3.55
   0   6 -13   -0.35    4.60
   0  -6  13    4.05    7.25
   0  -6  13    1.91    5.76
  -1   6 -13   45.29    6.30
   1  -6  13   36.72    8.04
   1  -6  13   62.97   11.25
  -2   6 -13  101.30    8.48
   2  -6  13   98.51   11.50
   2  -6  13  116.74   11.61
  -3   6 -13   14.19    4.34
   3  -6  13   21.42    6.17
   3  -6  13    3.70    7.72
  -4   6 -13   45.36    6.32
   4  -6  13   40.89    7.99
   4  -6  13   32.10   10.84
  -5   6 -13   -1.17    4.73
  -5   6 -13   11.86    5.35
   5  -6  13    5.81   10.64
   5  -6  13    0.55    6.39
  -6   6 -13   28.08    7.86
   6  -6  13   24.74   10.07
   6  -6  13   28.46    7.82
  -7   6 -13    5.17    6.89
  -7   6 -13   25.71    8.16
   7   5 -13   -6.19   12.97
  -7  -5  13   21.08   16.24
   6   5 -13   10.96    5.31
   6   5 -13   -4.59    9.95
  -6  -5  13   12.97   13.03
   5   5 -13    3.35    5.12
   5   5 -13   22.41    7.62
  -5  -5  13    3.65    9.73
   4   5 -13   -3.02    4.30
   4   5 -13    7.25    5.66
  -4  -5  13  -11.63    6.78
   3   5 -13   20.27    4.83
   3   5 -13   28.45    6.65
  -3  -5  13   27.77    7.99
   2   5 -13   56.04    6.62
   2   5 -13   50.76    8.28
  -2  -5  13   70.33    9.40
   1   5 -13   21.01    6.07
  -1  -5  13   11.52    6.86
   0   5 -13   44.65    6.89
   0  -5  13   37.95    8.15
   0  -5  13   38.73    9.23
  -1   5 -13   34.74    5.46
   1  -5  13   41.02    8.77
   1  -5  13   52.07   10.21
  -2   5 -13   99.31    8.70
  -2   5 -13  119.82    6.20
   2  -5  13  113.34   11.96
   2  -5  13  105.21   11.41
  -3   5 -13   75.55    8.66
  -3   5 -13   51.57    5.73
   3  -5  13   47.32    8.56
   3  -5  13   58.22   11.19
  -4   5 -13   17.37    5.03
   4  -5  13    3.77    6.22
   4  -5  13   29.60    8.74
  -5   5 -13    0.86    5.22
  -5   5 -13   17.97    5.53
   5  -5  13   -5.19    6.41
   5  -5  13   21.00    9.81
  -6   5 -13   20.08    6.89
  -6   5 -13   11.92    6.43
   6  -5  13   13.84    9.55
   6  -5  13   17.03    7.19
  -7   5 -13   25.99    7.27
   7  -5  13   35.00   12.69
   8   4 -13   34.82   14.05
  -8  -4  13   28.73   17.25
   7   4 -13   13.28   11.38
   7   4 -13   11.77    5.96
   6   4 -13    3.80    5.25
   6   4 -13   10.11    8.76
  -6  -4  13   19.57   10.80
   5   4 -13   56.01    7.55
   5   4 -13   56.92    9.10
  -5  -4  13   50.23   11.82
   4   4 -13   42.04    8.60
   4   4 -13   32.50    5.71
  -4  -4  13   41.39   10.58
   3   4 -13   84.81    9.32
   3   4 -13   98.44    8.93
  -3  -4  13   99.21   11.20
   2   4 -13   67.33    7.48
   2   4 -13   64.81    7.00
  -2  -4  13   75.32   10.31
   1   4 -13   34.96    5.28
   1   4 -13   37.90    6.52
  -1  -4  13   24.86    5.98
   0  -4  13  225.18   14.87
   0  -4  13  233.98   16.06
  -1   4 -13   26.79    3.95
  -1   4 -13   37.31    5.80
   1  -4  13   39.48    7.88
   1  -4  13   32.94    7.74
  -2   4 -13   97.36    8.19
  -2   4 -13   89.67    6.53
   2  -4  13   97.15   10.93
   2  -4  13   82.34   10.22
  -3   4 -13   -0.34    4.18
  -3   4 -13    6.00    3.91
   3  -4  13    9.31    6.81
   3  -4  13   -1.01    6.10
  -4   4 -13   47.93    7.21
  -4   4 -13   61.51    7.78
   4  -4  13   49.66    8.85
   4  -4  13   61.57   11.28
  -5   4 -13   51.34    8.58
  -5   4 -13   27.56    7.02
   5  -4  13   49.10   10.96
   5  -4  13   45.07    9.30
  -6   4 -13   11.76    6.76
  -6   4 -13   -2.34    6.89
   6  -4  13    9.33    7.92
   6  -4  13    6.69   10.96
  -7   4 -13   22.22    8.74
  -7   4 -13   13.22    6.97
   7  -4  13   -5.17    9.08
   7  -4  13   19.81   12.91
   8   3 -13    7.12   14.55
  -8  -3  13  -13.65   16.13
   7   3 -13   15.10    9.26
   7   3 -13   11.60    5.70
  -7  -3  13    9.12   11.85
   6   3 -13    1.80    4.39
   6   3 -13   12.21    7.30
  -6  -3  13   28.25    9.96
   5   3 -13   25.28    5.94
   5   3 -13   19.25    4.91
  -5  -3  13   18.25    8.02
   4   3 -13   66.67    8.05
   4   3 -13   67.50    8.16
  -4  -3  13   62.06   10.51
   3   3 -13   49.43    6.78
   3   3 -13   32.84    6.38
  -3  -3  13   37.48    8.76
   2   3 -13    2.96    3.49
   2   3 -13   11.76    4.10
   2   3 -13   -0.43    1.85
  -2  -3  13    6.47    4.94
   1   3 -13   12.47    4.30
   1   3 -13   11.46    2.55
  -1  -3  13   20.60    6.17
  -1  -3  13    7.31    6.88
   0   3 -13  122.70    9.56
   0   3 -13  137.79    6.60
   0  -3  13  116.82   11.58
   0  -3  13  121.28   10.52
  -1   3 -13  179.54    8.96
  -1   3 -13  170.60   11.19
   1  -3  13  197.63   14.44
  -2   3 -13    5.18    3.43
  -2   3 -13    4.63    3.64
   2  -3  13   -1.16    6.27
  -3   3 -13    7.10    4.05
   3  -3  13   -7.19    7.36
   3  -3  13   -0.26    6.10
  -4   3 -13    2.29    4.12
  -4   3 -13   -6.07    5.33
   4  -3  13   -0.91    6.18
   4  -3  13    0.00    7.43
  -5   3 -13   56.06    8.61
  -5   3 -13   56.21    9.54
   5  -3  13   61.52   11.08
   5  -3  13   57.41    9.94
  -6   3 -13   15.52    8.54
  -6   3 -13   13.43    7.07
   6  -3  13   29.83   11.34
   9   2 -13   46.61   13.65
  -9  -2  13   55.72   18.35
   8   2 -13   38.47   11.81
   8   2 -13    0.76    6.57
  -8  -2  13    1.53   14.65
   7   2 -13   43.06    9.53
  -7  -2  13   50.06   13.04
   6   2 -13   49.05    8.10
   6   2 -13   48.84    8.65
  -6  -2  13   49.30    6.09
  -6  -2  13   53.50   11.02
   5   2 -13   86.97    9.22
   5   2 -13   82.08    8.86
  -5  -2  13   92.06    6.06
  -5  -2  13  111.30   13.13
   4   2 -13   89.15    8.24
   4   2 -13  103.03    8.95
  -4  -2  13  128.87   12.92
  -4  -2  13  112.18    6.25
   3   2 -13   14.94    4.66
   3   2 -13   16.70    4.35
  -3  -2  13   22.83    5.95
  -3  -2  13   19.46    3.51
   2   2 -13  383.98   13.23
   2   2 -13  381.74   17.93
   2   2 -13  399.89   15.59
  -2  -2  13  368.88   20.22
   1   2 -13  116.33    6.75
   1   2 -13  114.35    9.04
  -1  -2  13  130.98   10.11
  -1  -2  13  118.35   10.76
   0   2 -13  211.62   12.67
   0   2 -13  212.01    9.85
   0  -2  13  208.30   12.83
   0  -2  13  206.91   14.06
  -1   2 -13   82.21    6.62
  -1   2 -13   79.35    7.08
   1  -2  13   89.56    8.71
   1  -2  13   62.78    8.85
  -2   2 -13   34.63    6.04
  -2   2 -13   39.13    6.30
   2  -2  13   46.94    9.47
  -3   2 -13  114.62    9.59
  -3   2 -13   91.75    8.97
   3  -2  13   88.91   10.15
   3  -2  13  102.49   11.21
  -4   2 -13    9.94    6.34
  -4   2 -13   21.24    5.61
   4  -2  13   26.57    8.34
  -5   2 -13   48.09    8.37
  -5   2 -13   40.71    7.25
   5  -2  13   45.09   10.61
  -6   2 -13   -2.29    5.85
  -6   2 -13   -7.70    8.53
   6  -2  13   12.36    9.89
   6  -2  13   15.50   11.11
   9   1 -13    3.11    7.76
   9   1 -13  -24.24   13.61
  -9  -1  13    4.75   14.24
   8   1 -13   20.60    9.64
   8   1 -13    2.72    6.75
  -8  -1  13   47.84   12.95
   7   1 -13   10.70    7.16
   7   1 -13    3.77    6.02
  -7  -1  13    4.87    8.56
  -7  -1  13    0.94    5.04
   6   1 -13   34.01    7.44
   6   1 -13   30.39    5.91
  -6  -1  13   30.74    9.51
  -6  -1  13   29.48    5.29
   5   1 -13   46.08    6.75
   5   1 -13   36.28    6.54
  -5  -1  13   60.06    9.36
  -5  -1  13   44.38    5.28
   4   1 -13   28.86    5.50
   4   1 -13   25.07    5.37
  -4  -1  13   23.40    6.57
  -4  -1  13   36.24    4.45
   3   1 -13   25.15    4.73
   3   1 -13   27.29    4.64
  -3  -1  13   35.11    8.29
  -3  -1  13   25.61    4.22
   2   1 -13   91.08    6.10
   2   1 -13   71.58    8.13
  -2  -1  13   80.30    9.71
  -2  -1  13   71.49    7.72
   1   1 -13  179.91   11.43
   1   1 -13  177.40    9.36
  -1  -1  13  185.39   11.01
  -1  -1  13  190.50   13.42
   0   1 -13   53.81    6.82
   0  -1  13   65.32    9.85
   0  -1  13   48.59    6.95
  -1   1 -13   14.83    4.06
  -1   1 -13    8.51    4.13
   1  -1  13   10.16    5.13
   1  -1  13   24.40    6.32
  -2   1 -13   11.92    4.58
  -2   1 -13   22.94    5.39
   2  -1  13   19.86    5.94
   2  -1  13    7.49    6.30
  -3   1 -13   57.14    7.55
  -3   1 -13   54.14    8.76
   3  -1  13   52.10    8.84
  -4   1 -13   88.83   10.94
  -4   1 -13   74.67    8.60
   4  -1  13   74.47   11.32
   4  -1  13   74.85   12.75
  -5   1 -13    7.36    6.03
  -5   1 -13    2.98    6.80
   5  -1  13   22.03    9.66
   5  -1  13    3.44    9.20
  -6   1 -13   -2.22    9.68
   6  -1  13   21.07   11.47
   6  -1  13   -0.57   10.95
   9   0 -13  -19.09   12.24
   9   0 -13   -7.11    7.43
  -9   0  13   -4.33    7.67
  -9   0  13    7.29   14.76
   8   0 -13   23.27    9.62
   8   0 -13   38.22    8.54
  -8   0  13   35.39   11.67
  -8   0  13   29.55    6.61
   7   0 -13   42.11    8.34
   7   0 -13   55.00    8.90
  -7   0  13   63.12   13.36
  -7   0  13   43.47    6.61
   6   0 -13   44.25    7.77
   6   0 -13   69.92    7.68
  -6   0  13   58.67    8.97
  -6   0  13   92.36   13.46
   5   0 -13   55.57    6.12
   5   0 -13   38.88    8.12
  -5   0  13   40.90    5.70
   4   0 -13  130.05    7.94
   4   0 -13  128.10   10.23
  -4   0  13  134.40    8.32
  -4   0  13  158.31   13.52
   3   0 -13  204.60   12.13
   3   0 -13  174.11    8.46
  -3   0  13  167.86   13.48
  -3   0  13  180.32    9.45
   2   0 -13  159.03    9.29
   2   0 -13  160.21   10.74
  -2   0  13  150.30    9.14
  -2   0  13  160.61   12.30
   1   0 -13  204.82   10.89
   1   0 -13  209.85   12.37
  -1   0  13  221.04   10.65
  -1   0  13  203.35   14.49
   0   0 -13    5.68    3.65
   0   0 -13    7.28    4.06
   0   0  13    1.64    4.26
   0   0  13    2.55    4.76
  -1   0 -13  157.86   10.49
  -1   0 -13  145.18   10.71
   1   0  13  142.29   12.62
   1   0  13  152.56    9.94
  -2   0 -13   33.42    6.39
  -2   0 -13   25.22    5.77
   2   0  13   42.01    9.45
   2   0  13   33.69    6.39
  -3   0 -13  101.49   10.54
  -3   0 -13   81.19    8.65
   3   0  13   78.55   10.14
   3   0  13   94.41   13.37
  -4   0 -13   58.06    8.21
  -4   0 -13   69.86   11.31
   4   0  13   74.39   15.37
   4   0  13   70.27   11.57
  -5   0 -13    2.30   16.14
   5   0  13    6.82    9.44
  10  -1 -13   13.24   10.01
  10  -1 -13   25.29   14.97
 -10   1  13    1.88    8.91
 -10   1  13    1.89   15.81
   9  -1 -13   -3.92   10.46
   9  -1 -13   18.48    8.27
  -9   1  13    4.23   13.13
  -9   1  13   18.04    8.03
   8  -1 -13  -12.29    7.82
   8  -1 -13   -8.24    6.91
  -8   1  13    9.48    6.46
  -8   1  13    7.96   11.11
   7  -1 -13   24.63    7.24
   7  -1 -13   16.52    5.80
  -7   1  13   22.29    9.32
  -7   1  13   18.28    5.28
   6  -1 -13    4.39    5.11
   6  -1 -13   19.50    4.62
  -6   1  13    9.79    4.33
  -6   1  13   13.63    8.11
   5  -1 -13   56.27    5.93
   5  -1 -13   74.71    9.01
  -5   1  13   67.63   10.27
  -5   1  13   56.91    6.68
   4  -1 -13   57.21    4.92
   4  -1 -13   47.21    7.65
  -4   1  13   79.85   10.97
   3  -1 -13  104.08    9.51
  -3   1  13  111.90    7.34
  -3   1  13  137.44   12.52
   2  -1 -13   66.90    8.34
   2  -1 -13   78.98    7.38
  -2   1  13   72.57    9.40
   1  -1 -13    9.69    4.13
   1  -1 -13   15.81    4.36
  -1   1  13    8.16    5.91
   0  -1 -13   52.08    6.95
   0  -1 -13   44.74    6.73
   0   1  13   55.01    9.43
  -1  -1 -13    8.86    5.11
   1   1  13   13.62    6.06
  -2  -1 -13  123.76   11.44
  -2  -1 -13  107.88    9.65
   2   1  13  136.01   13.92
  -3  -1 -13   39.34    7.90
  -3  -1 -13   26.04    6.40
   3   1  13   30.68    9.87
  -4  -1 -13   18.45    6.13
  -4  -1 -13    5.39    8.58
   4   1  13    6.55   10.30
  10  -2 -13    4.79    9.27
  10  -2 -13   25.12   13.10
 -10   2  13    2.16    9.08
   9  -2 -13   13.68   10.04
   9  -2 -13   12.39    7.09
  -9   2  13   24.26    7.87
  -9   2  13   30.23   11.86
   8  -2 -13   42.77    8.68
   8  -2 -13   58.83    9.57
  -8   2  13   53.55    9.93
   7  -2 -13   26.07    7.83
   7  -2 -13   30.93    7.27
  -7   2  13   23.04    6.00
  -7   2  13   26.86   10.39
   6  -2 -13   12.92    4.81
   6  -2 -13    8.00    4.29
  -6   2  13    2.77    6.58
   5  -2 -13   52.85    7.25
  -5   2  13   70.01   11.16
  -5   2  13   60.32    6.71
   4  -2 -13   88.08    9.27
  -4   2  13  114.49   12.28
  -4   2  13   88.70    7.76
   3  -2 -13  162.47   11.65
  -3   2  13  179.57   10.55
  -3   2  13  173.17   13.32
   2  -2 -13   57.86    8.11
   2  -2 -13   44.02    7.12
  -2   2  13   43.16    9.00
   1  -2 -13   82.03    8.65
   1  -2 -13   83.37    8.69
  -1   2  13   71.15   11.28
   0  -2 -13   46.50    7.12
   0  -2 -13   64.64    7.53
   0   2  13   59.36   11.02
  -1  -2 -13   77.06    8.58
  -1  -2 -13   87.53   10.19
   1   2  13   93.28   13.33
  -2  -2 -13  113.09   11.25
  -2  -2 -13   86.88    9.34
   2   2  13  100.85   12.59
  -3  -2 -13   -1.26    5.62
  -3  -2 -13   12.04    8.14
   3   2  13  -12.61   10.34
  -4  -2 -13   53.28   12.38
   4   2  13   26.99   13.86
  10  -3 -13   -6.25   10.40
 -10   3  13    9.68    9.32
 -10   3  13   -1.26   13.31
   9  -3 -13    0.51    6.33
  -9   3  13    4.49    8.01
  -9   3  13   -6.99   10.27
   8  -3 -13    0.02    6.25
  -8   3  13   13.90    6.77
  -8   3  13   -7.36    8.87
  -7   3  13   36.43    6.99
  -7   3  13   25.58    9.23
   6  -3 -13   35.72    8.30
  -6   3  13   45.84    7.46
  -6   3  13   35.45    9.74
   5  -3 -13   21.91    5.90
  -5   3  13   30.14    6.16
   4  -3 -13   47.52    7.19
  -4   3  13   50.82    9.61
  -4   3  13   48.40    7.51
   3  -3 -13   10.61    4.92
  -3   3  13   19.57    5.16
  -3   3  13   19.39    7.04
   2  -3 -13   71.96    8.94
   2  -3 -13   89.33    9.63
  -2   3  13   89.11   14.41
   1  -3 -13   11.65    4.81
  -1   3  13   19.75    8.02
   0  -3 -13   69.42    8.80
   0  -3 -13   65.49    9.56
   0   3  13   57.97   11.54
  -1  -3 -13   63.11    8.61
  -1  -3 -13   66.35    9.96
   1   3  13   57.85   11.92
  -2  -3 -13   34.89    7.68
  -2  -3 -13   29.20    9.85
  -3  -3 -13   32.05   11.11
   3   3  13   26.43   11.26
  10  -4 -13   -3.56    7.89
 -10   4  13   10.02   12.07
 -10   4  13    3.99   11.42
   9  -4 -13   10.84    7.98
   8  -4 -13   12.07    6.02
  -8   4  13  -12.42    6.93
  -8   4  13  -13.44    9.29
  -7   4  13   27.62    6.12
   6  -4 -13   20.77    6.16
  -6   4  13   26.11    6.63
  -6   4  13   31.88    9.48
   5  -4 -13   72.77    9.23
  -5   4  13   67.02   10.49
  -5   4  13   88.06    9.10
   4  -4 -13   56.57    8.17
  -4   4  13   44.39    7.60
  -4   4  13   67.52   10.33
   3  -4 -13   46.36    8.26
  -3   4  13   35.90    6.88
  -3   4  13   53.77   11.07
   2  -4 -13   37.68    6.59
   2  -4 -13   38.77    7.73
  -2   4  13   56.80   10.74
   1  -4 -13   26.78    7.22
   1  -4 -13   25.58    6.07
  -1   4  13   16.80   10.06
   0  -4 -13  113.46   11.82
   0  -4 -13   78.09    9.75
   0   4  13  102.31   15.20
  -1  -4 -13   -5.38    6.58
  -1  -4 -13   10.18    8.30
   1   4  13   -3.22   10.69
  -2  -4 -13   28.22   10.56
   2   4  13   32.79   13.05
   9  -5 -13   12.81    7.13
  -9   5  13   -5.22    8.41
  -9   5  13   44.68   14.01
  -8   5  13   30.29    9.19
  -8   5  13   21.76    9.43
   7  -5 -13   10.41    6.47
  -7   5  13    7.15    8.62
  -7   5  13   16.71    7.97
   6  -5 -13   -0.79    5.66
  -6   5  13   -8.62    6.06
  -6   5  13   -5.26    8.58
   5  -5 -13    2.71    5.60
  -5   5  13   10.58    9.34
  -5   5  13   13.72    6.41
   4  -5 -13   60.45    9.52
  -4   5  13   60.83    9.58
  -4   5  13   56.10   11.28
   3  -5 -13   39.34    8.86
  -3   5  13   63.84   13.21
  -3   5  13   51.02    8.30
   2  -5 -13   24.03    8.12
   2  -5 -13   22.71    7.27
  -2   5  13   29.04    9.91
   1  -5 -13   24.41    8.37
   1  -5 -13   35.94    7.92
  -1   5  13   34.61   10.44
   0  -5 -13   23.07    7.35
   0   5  13   39.45   10.69
  -1  -5 -13   25.43    7.05
   1   5  13   17.67   12.74
   9  -6 -13   -3.23    8.42
  -9   6  13   -6.36    9.48
  -9   6  13    2.96   10.20
   8  -6 -13   -5.17    7.73
  -8   6  13    9.43   10.01
  -8   6  13    8.16    8.20
   7  -6 -13   19.25   13.12
  -7   6  13   30.79   10.82
  -7   6  13   28.45    8.48
   6  -6 -13   27.28    7.91
  -6   6  13   39.90    9.58
  -6   6  13   43.27    9.18
  -5   6  13   22.49    7.74
  -5   6  13   17.78   10.59
   4  -6 -13   20.27    7.57
  -4   6  13   24.43    7.67
  -4   6  13   20.63    9.00
   3  -6 -13   13.72    8.15
   3  -6 -13   -6.62    6.29
  -3   6  13   -4.91    8.54
   2  -6 -13   33.10    8.44
   2  -6 -13   36.15    9.33
   1  -6 -13   24.52    8.95
   1  -6 -13    8.56    8.02
  -1   6  13   -2.18   11.48
   0  -6 -13   21.54    8.11
   0   6  13    2.86   11.38
   8  -7 -13    9.96    8.35
  -8   7  13   18.17   10.45
   7  -7 -13   11.26    8.08
  -7   7  13   17.44   10.17
   6  -7 -13   22.59    8.42
  -6   7  13   10.33   10.22
  -6   7  13   10.16    8.25
   5  -7 -13   50.01   10.64
  -5   7  13   65.72   13.58
  -5   7  13   42.20    9.91
   4  -7 -13    4.47   13.24
  -4   7  13  -12.84    7.78
   3  -7 -13    8.80    8.88
   3  -7 -13   -2.71    8.51
  -3   7  13   29.67   12.37
   2  -7 -13    7.96   10.17
   2  -7 -13   11.40    7.33
  -2   7  13   10.22   10.61
   6  -8 -13   11.46    9.82
  -6   8  13  -10.55   11.68
  -6   8  13   -7.85    9.72
   5  -8 -13   10.70   10.81
  -5   8  13   13.62   12.53
  -1  11 -14    5.62    6.70
   1 -11  14   -2.52   16.43
   1 -11  14   16.34   11.98
  -2  11 -14   13.63    6.90
   2 -11  14   30.42   17.52
   2 -11  14    4.00   10.56
  -3  11 -14   -7.08    7.22
   3 -11  14   -6.12    9.55
   3 -11  14   -3.55   14.50
  -4  11 -14   -7.97    6.91
   4 -11  14   23.21   16.65
   1  10 -14    2.46   10.68
   1  10 -14    4.71    7.17
  -1 -10  14   25.65   11.22
   0  10 -14   14.23   10.67
   0  10 -14    9.69    6.71
   0 -10  14   14.92   10.02
  -1  10 -14    2.12    6.03
   1 -10  14   19.05    9.84
   1 -10  14   16.64   16.04
   2 -10  14    6.33    9.34
   2 -10  14  -15.65   14.11
  -3  10 -14   18.13    7.66
   3 -10  14   11.19   15.03
   4 -10  14   27.71   10.48
   4 -10  14   22.96   13.32
  -5  10 -14   18.37    6.72
   5 -10  14   23.42   15.13
  -6  10 -14   13.35    7.36
   3   9 -14   11.44   11.05
   3   9 -14   21.66    7.05
  -3  -9  14   28.36   13.91
   2   9 -14    4.24    9.51
   2   9 -14    0.13    5.63
  -2  -9  14   -2.80    9.55
   1   9 -14   48.58   16.74
  -1  -9  14    5.78    9.80
   0   9 -14   24.89    9.91
   0   9 -14    5.64    6.02
   0  -9  14   12.08    8.90
  -1   9 -14   -5.64    4.98
   1  -9  14  -11.45   11.28
   1  -9  14    4.74    8.10
  -2   9 -14    7.73    5.13
   2  -9  14  -20.25   12.46
   2  -9  14    0.03    7.44
  -3   9 -14   13.51    5.63
   3  -9  14   11.02    8.48
   3  -9  14   -3.22   10.61
  -4   9 -14   16.27   10.41
   4  -9  14    0.54   13.40
   4  -9  14    4.33    9.11
  -5   9 -14   13.70    7.08
   5  -9  14   26.26   14.67
  -6   9 -14   10.37    7.15
   6  -9  14   -0.92   13.60
   4   8 -14   17.67   12.28
   4   8 -14   23.53    6.94
  -4  -8  14    2.83   12.18
   3   8 -14   -9.89   16.79
   3   8 -14   -3.69    6.23
  -3  -8  14    5.17   11.16
   2   8 -14    4.32    7.60
   2   8 -14    7.37    5.09
  -2  -8  14    1.90    7.97
   1   8 -14    5.95    8.85
   1   8 -14    2.42    4.82
   0   8 -14   59.58   11.19
   0  -8  14   37.49    9.76
  -1   8 -14   11.15    4.95
   1  -8  14   17.74    7.64
   1  -8  14   17.54   10.40
  -2   8 -14   44.75    8.11
   2  -8  14   28.29   11.99
   2  -8  14   56.78   11.52
  -3   8 -14   10.98    4.99
   3  -8  14   15.69    9.05
   3  -8  14   22.02   10.65
  -4   8 -14   17.24    6.31
   4  -8  14    7.57   12.20
   4  -8  14    1.60    9.20
  -5   8 -14   49.47    9.22
   5  -8  14   25.93    8.81
   5  -8  14   24.08   14.05
  -6   8 -14   14.58    7.27
   6  -8  14   33.93   12.41
   5   7 -14    2.95   10.38
   5   7 -14   15.07    6.35
  -5  -7  14    3.73   13.96
   4   7 -14   20.35    9.66
   4   7 -14   14.21    6.46
  -4  -7  14   16.38   10.47
   3   7 -14   -1.60    5.11
   3   7 -14    5.82    8.86
  -3  -7  14    0.30    9.05
   2   7 -14   12.51    7.22
   2   7 -14    1.81    5.06
  -2  -7  14   22.52    7.11
   1   7 -14   16.74    7.21
  -1  -7  14   26.69    8.64
   0   7 -14    6.74    4.63
   0   7 -14    6.49    7.32
   0  -7  14   16.42   10.85
   0  -7  14   29.07    8.25
  -1   7 -14   23.58    5.52
   1  -7  14   25.54    7.18
   1  -7  14   35.90    9.86
  -2   7 -14   28.53    6.03
   2  -7  14   39.14   13.22
   2  -7  14   56.64   11.38
  -3   7 -14   43.36    7.07
   3  -7  14   36.25   12.05
   3  -7  14   32.25    9.20
  -4   7 -14    1.86    4.97
   4  -7  14    1.37    8.07
   4  -7  14    9.16   10.13
  -5   7 -14    4.02    6.36
   5  -7  14   -1.10    7.65
   5  -7  14   10.90   11.89
  -6   7 -14    2.90    6.42
   6  -7  14   -8.93   13.86
  -7   7 -14   -6.49    7.04
   6   6 -14   12.07   11.92
  -6  -6  14   32.16   17.16
   5   6 -14    9.66    9.99
   5   6 -14   17.70    6.15
  -5  -6  14   24.21   12.04
   4   6 -14   10.71    5.48
   4   6 -14    5.07    9.05
  -4  -6  14    2.49    9.87
   3   6 -14   -3.32    6.91
   3   6 -14    3.89    5.07
  -3  -6  14    3.68    6.84
   2   6 -14   60.75    7.73
   2   6 -14   68.87    9.09
  -2  -6  14   63.37   11.53
   1   6 -14   79.60    8.48
   1   6 -14  106.98   10.75
  -1  -6  14  103.46   12.01
   0   6 -14   13.92    4.63
   0  -6  14   22.72   10.21
   0  -6  14   11.09    6.19
  -1   6 -14   18.35    4.94
   1  -6  14   12.38    9.28
   1  -6  14   14.25    7.52
  -2   6 -14   13.46    5.15
   2  -6  14   13.51    8.93
   2  -6  14   27.64    8.45
  -3   6 -14   66.73    8.28
   3  -6  14   75.54   12.16
   3  -6  14   72.41   13.50
  -4   6 -14   48.23    7.40
   4  -6  14   67.36   13.51
   4  -6  14   60.63   10.71
  -5   6 -14   -0.62    5.79
   5  -6  14    2.10   10.61
   5  -6  14   -8.12    7.75
  -6   6 -14   17.73    8.21
  -6   6 -14    1.87    7.26
   6  -6  14   27.76    8.17
   6  -6  14    4.63   11.89
  -7   6 -14    4.60   11.87
   7   5 -14   17.34   12.12
  -7  -5  14   33.99   17.44
   6   5 -14    9.17    5.79
   6   5 -14   25.57   10.99
  -6  -5  14    5.16   13.92
   5   5 -14   11.10    6.01
   5   5 -14   -2.64    8.51
  -5  -5  14   18.98   10.40
   4   5 -14    8.94    7.96
  -4  -5  14    9.45    7.79
   3   5 -14   15.41    5.78
   3   5 -14    5.44    4.30
  -3  -5  14   15.85    6.51
   2   5 -14    9.72    5.50
   2   5 -14    5.38    4.40
  -2  -5  14    8.94    6.05
   1   5 -14   31.51    5.64
  -1  -5  14   21.18    7.39
   0   5 -14  107.69    9.19
   0  -5  14  109.47   13.40
  -1   5 -14   43.76    6.43
   1  -5  14   33.54    9.74
   1  -5  14   43.65    9.90
   2  -5  14   53.05   10.12
   2  -5  14   59.05    8.79
  -3   5 -14    9.15    5.00
  -3   5 -14   20.96    4.80
   3  -5  14   12.80    8.52
   3  -5  14   13.18    7.48
  -4   5 -14   57.23    7.20
  -4   5 -14   42.11    7.37
   4  -5  14   55.86   10.59
   4  -5  14   54.22   11.19
  -5   5 -14    5.37    6.24
   5  -5  14   14.29    8.40
   5  -5  14   34.76   11.37
  -6   5 -14   -3.84    6.06
  -6   5 -14   -2.29    7.63
   6  -5  14   22.28   11.71
   6  -5  14   26.20    8.68
   7   4 -14   31.70    6.50
   7   4 -14   26.39   12.55
  -7  -4  14   10.33   15.95
   6   4 -14    9.01    6.17
   6   4 -14   32.04    8.78
  -6  -4  14   18.32   10.87
   5   4 -14   13.90    8.03
   5   4 -14   10.23    5.88
  -5  -4  14   18.03    9.84
   4   4 -14   61.95    9.49
   4   4 -14   34.57    6.64
  -4  -4  14   45.12    9.96
   3   4 -14  158.78   11.75
   3   4 -14  168.20   11.95
  -3  -4  14  172.80   14.78
   2   4 -14   34.53    6.75
   2   4 -14   38.78    5.93
  -2  -4  14   34.53    8.59
   1   4 -14   66.86    8.19
  -1  -4  14   56.59    9.23
  -1  -4  14   71.49   10.28
   0  -4  14   13.53    7.18
   0  -4  14   15.70    6.45
  -1   4 -14  103.94    7.17
  -1   4 -14  117.86    9.38
   1  -4  14  126.38   11.57
   1  -4  14  111.97   12.55
  -2   4 -14  146.77   10.80
  -2   4 -14  158.41    8.73
   2  -4  14  195.99   14.45
   2  -4  14  150.28   13.71
  -3   4 -14   18.74    5.32
   3  -4  14   37.43    8.87
   3  -4  14   26.50    8.03
  -4   4 -14    6.34    5.64
  -4   4 -14   22.83    6.02
   4  -4  14   10.75    8.79
   4  -4  14    8.07    7.98
  -5   4 -14   -1.37    6.69
  -5   4 -14   -1.18    6.09
   5  -4  14   12.93   12.02
   5  -4  14   21.42    8.11
  -6   4 -14   19.70    6.84
  -6   4 -14   11.87    8.34
   6  -4  14   21.08   11.91
   6  -4  14   15.93    9.20
   8   3 -14   10.31    8.39
   8   3 -14   -5.28   13.70
  -8  -3  14   34.85   18.87
   7   3 -14   10.26    6.20
   7   3 -14   30.31   10.67
  -7  -3  14   17.76   14.35
   6   3 -14    5.53    5.94
   6   3 -14    7.54    8.07
  -6  -3  14   18.91    9.52
   5   3 -14   -0.33    5.18
   5   3 -14   -1.96    6.28
  -5  -3  14   10.30    7.79
   4   3 -14   12.19    5.87
   4   3 -14   10.65    5.39
  -4  -3  14   13.29    6.84
   3   3 -14   39.01    7.01
   3   3 -14   42.15    6.35
  -3  -3  14   35.06    9.10
   2   3 -14  141.86   10.35
   2   3 -14  144.12    9.82
  -2  -3  14  160.56   14.05
   1   3 -14   11.21    4.84
   1   3 -14   17.92    4.02
  -1  -3  14   22.81    6.58
  -1  -3  14   18.94    6.92
   0   3 -14   51.95    7.31
   0   3 -14   66.41    5.18
   0  -3  14   49.75    9.85
   0  -3  14   42.66    8.17
  -1   3 -14   12.60    4.64
  -1   3 -14   18.09    4.07
   1  -3  14   14.59    7.33
   1  -3  14   13.10    7.63
  -2   3 -14   99.06    8.83
  -2   3 -14   88.94    7.81
   2  -3  14   73.04   10.97
   2  -3  14   61.86    9.97
  -3   3 -14   97.23    9.02
  -3   3 -14  115.02    8.86
   3  -3  14  118.95   12.52
   3  -3  14  112.00   12.99
  -4   3 -14    4.93    4.89
  -4   3 -14    2.96    5.71
   4  -3  14    3.17    9.07
   4  -3  14   11.03    7.89
  -5   3 -14   17.32    7.60
  -5   3 -14   18.60    6.88
   5  -3  14   29.25    8.99
   5  -3  14   40.12   10.27
  -6   3 -14   -2.58    6.66
  -6   3 -14   -8.00    8.45
   6  -3  14    2.90   10.55
   8   2 -14   24.13    7.34
   8   2 -14   29.67   11.53
  -8  -2  14   35.75   31.63
   7   2 -14   18.99    6.78
   7   2 -14   36.97    9.28
  -7  -2  14   23.38   13.07
   6   2 -14   13.82    6.94
   6   2 -14    9.05    6.15
  -6  -2  14   18.69    9.29
   5   2 -14   97.55    8.89
   5   2 -14   85.18    9.53
   4   2 -14   62.53    7.78
   4   2 -14   61.04    7.40
  -4  -2  14   52.20    5.17
  -4  -2  14   67.34   11.44
   3   2 -14   74.86    9.08
   3   2 -14   77.75    5.57
  -3  -2  14   93.94   10.53
   2   2 -14   40.96    4.53
   2   2 -14   32.29    6.81
  -2  -2  14   35.10    8.44
  -2  -2  14   32.80    7.00
   1   2 -14   75.26    5.93
   1   2 -14   94.11    8.61
  -1  -2  14   81.69    9.10
  -1  -2  14   63.94   10.12
   0   2 -14  249.90   11.44
   0   2 -14  232.82   13.71
   0  -2  14  260.57   14.35
   0  -2  14  245.60   16.58
  -1   2 -14   90.39    8.05
  -1   2 -14   79.26    7.49
   1  -2  14   85.75   10.27
   1  -2  14   82.59    9.30
  -2   2 -14   37.48    7.04
  -2   2 -14   43.21    6.91
   2  -2  14   35.43    9.14
   2  -2  14   56.75    9.65
  -3   2 -14   18.50    6.75
  -3   2 -14   14.18    5.36
   3  -2  14   36.13    8.48
   3  -2  14   25.66    8.68
  -4   2 -14   36.73    7.15
  -4   2 -14   40.79    8.60
   4  -2  14   33.64    9.36
  -5   2 -14   62.05    9.11
  -5   2 -14   36.44    9.35
   5  -2  14   41.08   12.13
   9   1 -14   21.29    8.70
   9   1 -14   32.38   13.27
  -9  -1  14   22.45   17.65
   8   1 -14   15.51   10.25
  -8  -1  14   -6.31   13.68
   7   1 -14    3.47    6.30
   7   1 -14   -4.57    7.39
  -7  -1  14   -3.36    5.59
  -7  -1  14    4.74    9.74
   6   1 -14   -1.68    5.94
   6   1 -14    4.93    5.53
  -6  -1  14    8.66    4.30
  -6  -1  14   26.75   10.20
   5   1 -14   24.65    6.33
   5   1 -14   22.25    6.19
  -5  -1  14   22.08    8.12
  -5  -1  14   16.87    4.15
   4   1 -14  143.87   10.56
   4   1 -14  117.75    8.48
  -4  -1  14  132.87   13.95
  -4  -1  14  121.69    7.88
   3   1 -14   44.64    6.68
   3   1 -14   43.29    5.70
  -3  -1  14   68.00   11.17
  -3  -1  14   54.62    5.36
   2   1 -14    3.83    3.59
   2   1 -14    9.42    5.46
  -2  -1  14    5.66    6.36
  -2  -1  14   15.93    5.49
   1   1 -14   20.47    4.04
   1   1 -14   20.34    5.73
  -1  -1  14   16.98    5.72
  -1  -1  14   20.87    8.23
   0   1 -14   66.93    6.75
   0   1 -14   60.13    7.02
   0  -1  14   78.38    8.03
   0  -1  14   79.89   11.26
  -1   1 -14  256.69   14.52
  -1   1 -14  284.73   13.55
   1  -1  14  258.44   13.63
   1  -1  14  245.13   16.61
  -2   1 -14   35.93    7.08
  -2   1 -14   35.09    6.66
   2  -1  14   33.03    9.10
   2  -1  14   52.30    9.33
  -3   1 -14   33.67    6.82
  -3   1 -14   44.23    8.31
   3  -1  14   41.19    9.17
   3  -1  14   60.69   10.42
  -4   1 -14    8.56    8.37
  -4   1 -14   -7.43    5.69
   4  -1  14    6.57    7.56
   4  -1  14    8.16    8.66
  -5   1 -14   13.51   10.05
  -5   1 -14   28.62    6.95
   5  -1  14    6.92   10.62
   9   0 -14   33.85   12.56
   9   0 -14   13.02    8.03
  -9   0  14   33.92   16.34
   8   0 -14   25.98    9.38
  -8   0  14   19.88   13.25
   7   0 -14   36.30    7.52
  -7   0  14   24.47    5.95
  -7   0  14   49.34   12.58
   6   0 -14   49.40    7.73
   6   0 -14   53.28    9.85
  -6   0  14   68.74   12.05
  -6   0  14   53.00    6.78
   5   0 -14   56.12    9.44
   5   0 -14   48.99    6.88
  -5   0  14   37.41    6.29
  -5   0  14   44.97   10.83
   4   0 -14   56.65    7.38
  -4   0  14   57.60   10.84
  -4   0  14   48.22    6.55
   3   0 -14   17.00    5.08
  -3   0  14   16.01    4.06
  -3   0  14   12.86    7.41
   2   0 -14  203.62   12.78
   2   0 -14  201.85   10.62
  -2   0  14  194.36   10.39
  -2   0  14  185.06   14.89
   1   0 -14  161.17   12.13
   1   0 -14  159.39   10.22
  -1   0  14  183.61   14.65
  -1   0  14  141.83    9.31
   0   0 -14   62.94    8.56
   0   0 -14   68.33    7.21
   0   0  14   57.64   10.08
  -1   0 -14   61.41    7.39
  -1   0 -14   71.01    8.51
   1   0  14   54.83   10.92
  -2   0 -14   26.20    7.02
  -2   0 -14   17.23    5.61
   2   0  14   25.90    7.93
  -3   0 -14   73.54    9.33
  -3   0 -14   76.41   10.97
   3   0  14   96.02   14.45
  -4   0 -14   11.09    6.20
  -4   0 -14   13.23    9.37
   4   0  14   20.28   12.09
   9  -1 -14    5.36   11.70
   9  -1 -14  -11.06    7.95
  -9   1  14  -10.19    7.82
  -9   1  14  -11.44   12.90
   8  -1 -14   25.58    8.89
   8  -1 -14   10.38    8.70
  -8   1  14   -5.91    6.97
   7  -1 -14    2.77    7.62
   7  -1 -14   -1.56    5.94
  -7   1  14   16.77    8.44
  -7   1  14   -5.88    5.30
   6  -1 -14   35.25    8.09
   6  -1 -14   38.81    6.78
  -6   1  14   34.62    6.50
  -6   1  14   51.73   12.13
   5  -1 -14   78.44    6.54
   5  -1 -14   56.49    9.06
  -5   1  14   75.84    7.74
  -5   1  14   78.61   12.98
   4  -1 -14   -3.20    4.74
  -4   1  14    3.76    4.42
  -4   1  14   15.34    6.18
   3  -1 -14   20.51    5.36
  -3   1  14   19.97    5.08
  -3   1  14   29.95    7.43
   2  -1 -14   20.85    5.83
  -2   1  14   25.09    6.89
   1  -1 -14  251.19   14.48
   1  -1 -14  249.17   13.70
  -1   1  14  261.85   18.11
   0  -1 -14  103.61    8.72
   0  -1 -14  110.33    9.55
   0   1  14   80.57   12.80
  -1  -1 -14    4.46    6.42
  -1  -1 -14   15.61    5.88
   1   1  14   11.14    7.47
  -2  -1 -14   16.03    6.26
  -2  -1 -14   32.05    7.48
   2   1  14   21.81    7.99
  -3  -1 -14    3.28    5.66
  -3  -1 -14   29.92    8.80
   3   1  14    1.95   10.24
  -4  -1 -14   33.27   10.00
   4   1  14   17.05   11.09
   9  -2 -14    0.11    9.24
  -9   2  14  -12.27    8.36
   8  -2 -14   38.94    8.93
  -8   2  14   30.66    7.68
  -8   2  14   37.77   13.78
   7  -2 -14   24.78    7.81
  -7   2  14   11.34    6.01
  -7   2  14   28.27    9.73
   6  -2 -14   29.66    6.97
  -6   2  14   35.55    6.55
  -6   2  14   34.70   10.13
   5  -2 -14   -3.94    5.12
  -5   2  14   -1.85    4.95
   4  -2 -14   86.29   10.44
  -4   2  14   94.60    8.17
  -4   2  14   98.33   13.32
   3  -2 -14   89.15   10.24
  -3   2  14  111.14    9.42
  -3   2  14  114.97   13.36
   2  -2 -14   38.13    8.00
   2  -2 -14   43.89    8.14
  -2   2  14   46.57   10.40
   1  -2 -14   78.55    9.29
   1  -2 -14   78.08    8.77
  -1   2  14   66.60   11.35
   0  -2 -14    5.20    5.63
   0  -2 -14   -2.28    6.55
   0   2  14   13.00    7.13
  -1  -2 -14   68.05    9.37
  -1  -2 -14   74.33    9.87
  -2  -2 -14   23.12    8.45
  -2  -2 -14   13.32    5.91
  -3  -2 -14    9.64    9.25
  -3  -2 -14   -2.95    6.73
   3   2  14   -7.71   10.37
   9  -3 -14    2.12    8.20
  -9   3  14  -13.02   11.42
  -9   3  14   -7.48    8.21
   8  -3 -14   11.35    6.70
  -8   3  14    2.54   11.46
  -8   3  14    0.90    7.43
   7  -3 -14   38.36    8.35
  -7   3  14   55.95   11.11
  -7   3  14   27.09    7.26
   6  -3 -14    7.96    6.13
  -6   3  14   27.32    8.25
  -6   3  14    2.55    5.72
   5  -3 -14    8.64    5.48
  -5   3  14    4.15    7.43
  -5   3  14    7.37    5.77
   4  -3 -14    0.71    5.28
  -4   3  14    6.00    7.01
  -4   3  14    7.11    5.14
   3  -3 -14  114.50   11.64
  -3   3  14  115.91   10.23
  -3   3  14   91.95   13.99
   2  -3 -14   91.62    9.61
   2  -3 -14   89.55    9.77
  -2   3  14  108.32   13.54
   1  -3 -14   15.69    6.90
   1  -3 -14    9.93    6.17
  -1   3  14   -5.02    7.66
   0  -3 -14    9.04    6.18
   0  -3 -14   24.89    7.85
   0   3  14   10.43   10.08
  -1  -3 -14    9.26    7.36
  -1  -3 -14   -8.76    6.41
   1   3  14  -13.18    9.39
  -2  -3 -14   33.11   10.11
   2   3  14   51.91   14.53
   9  -4 -14   -1.98    8.40
  -9   4  14   10.28    8.77
  -9   4  14    2.59   13.42
  -8   4  14   24.01    8.34
  -8   4  14   23.40   11.48
   7  -4 -14   12.17    6.62
  -7   4  14    7.18    7.60
  -7   4  14   24.85   10.50
   6  -4 -14   16.76    6.52
  -6   4  14   10.72    8.64
  -6   4  14   14.31    6.65
   5  -4 -14   40.29    8.05
  -5   4  14   39.23   10.36
  -5   4  14   59.97    9.46
   4  -4 -14   11.33    5.96
  -4   4  14   14.16    9.61
  -4   4  14   28.66    7.06
   3  -4 -14   64.70    9.80
   3  -4 -14   52.20    8.36
  -3   4  14   60.86    9.32
  -3   4  14   81.17   13.32
   2  -4 -14  -11.09    6.89
   2  -4 -14    3.16    6.01
  -2   4  14   16.71    8.51
   1  -4 -14   56.25    9.91
   1  -4 -14   62.69   10.51
  -1   4  14   51.95   11.79
   0  -4 -14   28.97    9.09
   0  -4 -14   14.55    7.41
   0   4  14   35.01   10.16
  -1  -4 -14    4.99    8.95
   1   4  14    8.90   10.85
   9  -5 -14   -1.32    8.40
  -9   5  14   -9.41   16.22
  -9   5  14   15.58   12.27
   8  -5 -14    0.15    7.45
  -8   5  14   -0.96   11.02
  -8   5  14    2.81    8.70
   7  -5 -14    3.38    6.61
  -7   5  14    2.82    9.70
  -7   5  14   11.74    8.64
   6  -5 -14    4.33    6.40
  -6   5  14   18.18    7.77
  -6   5  14   16.97    9.35
   5  -5 -14   17.19    7.76
  -5   5  14   20.67    7.11
  -5   5  14    1.69   10.24
   4  -5 -14   34.11    8.07
  -4   5  14   33.09   11.51
   3  -5 -14   13.91    7.22
   3  -5 -14   24.96    8.97
  -3   5  14   20.41    9.02
   2  -5 -14   18.27    9.41
  -2   5  14   47.38   21.43
   1  -5 -14    6.28    7.64
  -1   5  14   15.06   11.86
   0  -5 -14    7.93    7.91
   0  -5 -14   33.16   10.82
   0   5  14   23.61   13.33
   8  -6 -14   -6.48    9.29
  -8   6  14   -7.17    9.87
  -8   6  14    1.87   11.27
   7  -6 -14   -3.88    7.28
  -7   6  14    1.40   11.54
  -7   6  14   18.12   12.05
   6  -6 -14    3.47    7.22
  -6   6  14   35.52   11.36
  -6   6  14    5.60    7.38
   5  -6 -14   34.68    8.55
  -5   6  14   23.85    8.41
  -5   6  14   10.18   11.76
   4  -6 -14    8.17   13.85
  -4   6  14   22.34   11.79
  -4   6  14   -0.76    9.58
   3  -6 -14    1.58   10.44
   3  -6 -14   12.16    8.42
  -3   6  14   -6.35   10.36
   2  -6 -14   11.10   10.41
   2  -6 -14   16.07    8.26
  -2   6  14   22.66   12.71
   7  -7 -14   10.95   10.46
  -7   7  14   14.54   12.77
   6  -7 -14   -1.00    9.84
  -6   7  14   23.32   21.47
  -6   7  14   -5.43    8.27
   5  -7 -14   16.29   10.11
  -5   7  14    4.15   12.43
  -5   7  14   17.07    8.77
   4  -7 -14   19.28   11.19
   4  -7 -14   -2.32    8.43
  -4   7  14   15.63   10.57
  -4   7  14   -4.93    9.83
   1  10 -15   -6.62    6.77
  -1 -10  15    6.05   11.32
   0  10 -15   -8.41    7.29
   0  10 -15   26.33   12.65
   0 -10  15  -10.20   14.90
  -1  10 -15    4.94    7.12
   1 -10  15    5.94   16.51
   1 -10  15   -5.37   10.08
  -2  10 -15    4.22    6.31
   2 -10  15    8.10   14.54
   2 -10  15    0.80    9.66
  -3  10 -15    1.72    7.94
   3 -10  15   -9.99   13.02
  -4  10 -15    6.50    6.75
   4 -10  15    5.47   12.93
   4 -10  15   14.20   16.50
   2   9 -15   11.65    7.30
   2   9 -15   33.76   11.20
  -2  -9  15   11.83   10.67
   1   9 -15   -2.19    7.28
   1   9 -15   10.19   11.60
   0   9 -15    1.98   23.73
   0   9 -15   -6.59    5.71
   0  -9  15    0.50    9.45
   1  -9  15   30.60   14.71
   1  -9  15   22.91    8.28
   2  -9  15   -0.01   11.78
   2  -9  15   11.42   10.04
  -3   9 -15   14.19    7.89
   3  -9  15    2.12   13.18
   3  -9  15    9.64   10.45
  -4   9 -15   -0.20    6.38
   4  -9  15   -8.57   12.63
   4  -9  15   10.57    9.52
  -5   9 -15    0.61    7.40
   5  -9  15  -24.44   14.13
  -4  -8  15   17.22   14.11
   3   8 -15    1.78    6.93
   3   8 -15   11.34   10.53
  -3  -8  15    5.51   10.58
   2   8 -15    2.73    6.24
   2   8 -15   14.77    8.32
  -2  -8  15   17.77   11.40
   1   8 -15    0.23    6.12
   1   8 -15   16.01   10.13
  -1  -8  15   -0.43    7.79
   0   8 -15   14.20    6.45
   0  -8  15   35.66   13.71
   0  -8  15   22.88    9.32
  -1   8 -15   17.75    5.81
   1  -8  15   18.72    8.65
   1  -8  15   32.78   13.48
  -2   8 -15   40.56    8.83
   2  -8  15   27.37   13.97
   2  -8  15   48.42   10.53
  -3   8 -15    9.78    5.61
   3  -8  15    9.73   14.06
   3  -8  15    7.91    9.71
  -4   8 -15   14.19    6.45
   4  -8  15   15.86   10.82
   4  -8  15   25.61   13.13
  -5   8 -15    6.60    6.70
   5  -8  15   11.52    8.81
  -6   8 -15    4.14    6.92
   5   7 -15   14.21    7.35
  -5  -7  15   27.96   16.81
   4   7 -15   11.00   11.92
   4   7 -15    5.05    6.14
  -4  -7  15   10.10   10.61
   3   7 -15    4.07    8.04
   3   7 -15   -4.13    6.30
  -3  -7  15    6.55    8.72
   2   7 -15   17.63    7.82
   2   7 -15   17.61    6.09
  -2  -7  15    0.34    7.30
   1   7 -15   21.24    8.56
   1   7 -15   -3.54    5.30
  -1  -7  15    3.41    7.43
   0   7 -15   21.75    6.52
   0  -7  15   25.01    9.71
   0  -7  15   39.71   11.98
  -1   7 -15   51.61    7.35
   1  -7  15   31.80   12.67
   1  -7  15   62.71   11.37
  -2   7 -15   -4.91    4.65
   2  -7  15    6.54    8.48
   2  -7  15   -8.12    9.97
  -3   7 -15    4.60    5.87
   3  -7  15    5.24   11.20
   3  -7  15   27.29    9.83
  -4   7 -15    3.19    5.77
   4  -7  15  -12.38   12.09
  -5   7 -15   34.03   10.36
   5  -7  15   18.70    8.85
   5  -7  15   52.21   13.63
  -6   7 -15   -8.28    8.20
   6  -7  15   22.69   15.38
   5   6 -15   22.62    7.02
  -5  -6  15   25.81   13.97
   4   6 -15   28.97    6.09
   4   6 -15   34.02   10.58
  -4  -6  15   18.25   12.45
   3   6 -15  -13.20    7.87
   3   6 -15    0.21    5.82
  -3  -6  15    3.91    8.46
   2   6 -15   19.57    8.50
   2   6 -15   29.08    6.18
  -2  -6  15   24.01    8.47
   1   6 -15   26.70    6.15
   1   6 -15   49.09    8.55
  -1  -6  15   33.19   10.10
   0   6 -15   65.00    7.91
   0  -6  15   61.98   12.20
   0  -6  15   70.00   11.10
  -1   6 -15   30.91    5.96
   1  -6  15   43.06    9.98
   1  -6  15   44.51   11.74
  -2   6 -15   10.77    5.02
   2  -6  15   -0.26    8.30
   2  -6  15   21.06   10.35
   3  -6  15   42.50   11.47
   3  -6  15   35.75   11.97
  -4   6 -15   22.99    6.28
   4  -6  15   16.96    8.69
   4  -6  15   19.79   11.32
  -5   6 -15   15.88    6.77
   5  -6  15   12.13    9.00
   5   5 -15    8.76    9.05
   5   5 -15    6.04    6.39
   4   5 -15   12.06    5.48
   4   5 -15   -4.81    7.83
  -4  -5  15    3.87    9.19
   3   5 -15   -3.56    5.25
   3   5 -15    0.70    6.19
  -3  -5  15    4.41    8.23
   2   5 -15    6.77    4.94
   2   5 -15   16.97    6.95
  -2  -5  15   29.50    8.58
   1   5 -15   78.18    9.05
  -1  -5  15   61.72   10.30
  -1  -5  15   81.98   12.47
   0   5 -15   24.05    7.11
   0  -5  15   42.14   11.06
   0  -5  15    8.90    9.35
  -1   5 -15   25.09    5.88
   1  -5  15   27.79    8.93
   1  -5  15   23.85   10.16
  -2   5 -15   19.00    4.68
   2  -5  15   17.70    9.24
   2  -5  15   19.81    9.25
  -3   5 -15   39.69    6.88
   3  -5  15   54.00   12.29
   3  -5  15   47.45   10.53
  -4   5 -15   62.34    8.52
   4  -5  15   46.30   10.09
   4  -5  15   49.02   11.65
  -5   5 -15    6.72    7.21
   5  -5  15  -12.90   11.04
   5  -5  15    6.04    9.56
  -6   5 -15    7.70    9.05
  -6   5 -15    4.33    8.17
   6  -5  15   -5.11   13.75
   6  -5  15    0.60    9.48
   7   4 -15   17.60    7.07
   7   4 -15   -1.02   12.54
  -7  -4  15   16.02   15.50
   6   4 -15   35.13   10.96
   6   4 -15   20.47    7.13
  -6  -4  15   41.98   17.38
   5   4 -15   20.06    8.62
   5   4 -15   17.64    6.59
  -5  -4  15   15.80    9.87
   4   4 -15   19.72    7.89
   4   4 -15   22.76    5.75
  -4  -4  15   14.69    8.85
   3   4 -15   36.52    6.86
   3   4 -15   43.01    7.43
  -3  -4  15   38.19    9.82
   2   4 -15   44.55    8.71
   2   4 -15   53.41    8.33
  -2  -4  15   61.41   11.74
   1   4 -15  111.11    9.33
  -1  -4  15   86.77   13.55
  -1  -4  15  111.66   12.77
   0   4 -15    9.09    4.00
   0  -4  15   22.67    8.58
   0  -4  15    8.83    8.19
  -1   4 -15   57.69    7.33
   1  -4  15   42.06    9.41
   1  -4  15   61.79   11.38
  -2   4 -15   40.51    6.90
   2  -4  15   62.92   11.85
   2  -4  15   35.59   10.62
  -3   4 -15   47.97    7.56
  -3   4 -15   48.96    7.91
   3  -4  15   64.00   11.98
   3  -4  15   50.83   10.75
  -4   4 -15   40.10    7.21
   4  -4  15   27.04   10.44
   4  -4  15   45.15    9.82
  -5   4 -15    5.96    6.51
  -5   4 -15  -12.67    7.47
   5  -4  15   23.41    9.49
   5  -4  15   -8.64   10.93
   7   3 -15   13.51   11.10
   7   3 -15    8.70    6.98
  -7  -3  15   27.47   14.19
   6   3 -15   18.63    9.24
   6   3 -15   18.90    6.76
  -6  -3  15   21.47   10.68
   5   3 -15   36.63    7.62
  -5  -3  15   36.26   11.91
   4   3 -15    0.81    4.78
   4   3 -15    3.73    5.76
  -4  -3  15    8.49    7.37
   3   3 -15   48.46    8.57
   3   3 -15   60.26    7.73
  -3  -3  15   65.60   12.94
   2   3 -15   39.03    6.89
   2   3 -15   48.01    7.81
  -2  -3  15   42.26   10.53
   1   3 -15   43.57    7.01
  -1  -3  15   37.58    8.48
   0   3 -15   64.96    7.87
   0  -3  15   58.03   10.30
   0  -3  15   47.35    9.12
  -1   3 -15   18.54    4.63
  -1   3 -15   12.17    5.98
   1  -3  15   16.87    7.65
  -2   3 -15  106.66   10.22
  -2   3 -15   98.29    8.96
   2  -3  15  121.88   13.77
   2  -3  15  133.92   21.03
  -3   3 -15   30.23    6.61
  -3   3 -15   20.24    5.95
   3  -3  15   19.05    9.23
   3  -3  15   17.51    9.16
  -4   3 -15   14.10    6.73
  -4   3 -15   17.02    5.73
   4  -3  15   14.52    9.44
   4  -3  15   27.61    9.28
  -5   3 -15    0.78    7.91
  -5   3 -15   10.85    7.78
   5  -3  15   -7.14    9.49
   8   2 -15   37.45   14.07
  -8  -2  15   46.01   18.52
   7   2 -15   41.29   10.57
   7   2 -15   36.72    7.73
  -7  -2  15   34.63   13.99
   6   2 -15    8.19    6.67
   6   2 -15    4.36    7.30
   5   2 -15   18.88    6.18
  -5  -2  15   27.72    9.31
   4   2 -15   53.46    8.67
   4   2 -15   51.22    7.89
  -4  -2  15   50.89   11.54
   3   2 -15  187.83   11.48
   3   2 -15  202.57   13.41
  -3  -2  15  198.92   17.57
   2   2 -15   41.92    7.69
  -2  -2  15   37.69    9.53
  -2  -2  15   35.78    8.45
   1   2 -15   15.02    4.26
   1   2 -15    9.28    4.72
  -1  -2  15   18.63    7.00
  -1  -2  15   26.29    7.03
   0   2 -15   56.12    6.52
   0   2 -15   48.75    7.39
   0  -2  15   45.49    8.60
   0  -2  15   83.43   13.79
  -1   2 -15   90.38    7.61
  -1   2 -15   79.47    8.43
   1  -2  15   84.03   11.40
   1  -2  15   79.13   12.55
  -2   2 -15  118.94   10.00
  -2   2 -15  132.97   10.38
   2  -2  15   97.39   11.96
   2  -2  15  101.26   14.24
  -3   2 -15    3.44    7.27
  -3   2 -15   11.71    5.36
   3  -2  15   24.85    8.82
   3  -2  15    8.54    8.57
  -4   2 -15   28.78    7.97
  -4   2 -15   21.80    7.62
   4  -2  15   35.49   10.51
   4  -2  15   40.36   10.99
  -5   2 -15   10.24    9.07
  -5   2 -15   19.24    7.36
   5  -2  15   -1.82   21.61
   8   1 -15    4.63    9.34
   8   1 -15   12.40   10.14
  -8  -1  15   41.07   28.42
   7   1 -15   17.77    8.21
   7   1 -15   39.91    9.43
  -7  -1  15   15.62   12.25
   6   1 -15   19.78    8.08
   6   1 -15   14.24    6.89
  -6  -1  15    0.96    9.32
   5   1 -15   16.87    5.99
   5   1 -15   11.96    5.93
  -5  -1  15   16.57    4.78
   4   1 -15   61.00    8.91
  -4  -1  15   49.74    6.08
  -4  -1  15   65.94   11.94
   3   1 -15   23.28    6.61
   3   1 -15   36.64    5.74
  -3  -1  15   30.52    9.44
  -3  -1  15   30.31    7.36
   2   1 -15  156.79   11.85
   2   1 -15  150.48    9.02
  -2  -1  15  160.61   13.92
  -2  -1  15  156.44   11.27
   1   1 -15    5.53    5.21
   1   1 -15    7.88    4.15
  -1  -1  15    2.53    5.82
  -1  -1  15   13.15    7.22
   0   1 -15   90.09    9.65
   0   1 -15   86.17    8.21
   0  -1  15   89.38   13.06
   0  -1  15   95.22    9.48
  -1   1 -15   58.13    7.99
  -1   1 -15   82.29    9.04
   1  -1  15   71.13   13.67
  -2   1 -15   50.98    8.70
  -2   1 -15   31.31    6.42
   2  -1  15   34.21    9.16
  -3   1 -15   32.76    6.41
   3  -1  15   39.29    9.96
  -4   1 -15   -3.86    6.66
   4  -1  15   22.97   14.27
   8   0 -15   12.05    8.73
  -8   0  15  -10.83   13.63
   7   0 -15   12.82    8.43
   7   0 -15    2.85    7.05
  -7   0  15   31.39   12.39
  -7   0  15    9.77    5.55
   6   0 -15   24.98    6.84
   6   0 -15   28.22    6.52
  -6   0  15   26.42    5.55
  -6   0  15   46.09   12.51
   5   0 -15  154.50   12.50
   5   0 -15  149.89    9.71
  -5   0  15  162.78   17.27
  -5   0  15  141.68    9.66
   4   0 -15   53.22    6.33
   4   0 -15   70.80    8.85
  -4   0  15   70.46   11.22
   3   0 -15    6.58    5.89
  -3   0  15    8.22    7.80
   2   0 -15   34.59    7.42
   2   0 -15   42.85    6.75
  -2   0  15   36.94    8.69
   1   0 -15   78.82    7.87
   1   0 -15   59.31    8.22
  -1   0  15   70.04   12.48
   0   0 -15  134.09   11.21
   0   0 -15  159.56   11.06
   0   0  15  141.19   15.53
  -1   0 -15   48.54    7.86
  -1   0 -15   42.23    7.16
   1   0  15   61.04   11.97
  -2   0 -15   24.38    7.58
  -2   0 -15    7.28    6.32
   2   0  15    5.62    8.15
  -3   0 -15   10.75    6.92
  -3   0 -15   21.97    8.66
   3   0  15   15.58   21.00
  -4   0 -15   10.37    7.46
  -4   0 -15   36.37   17.02
   4   0  15    1.78   11.39
   9  -1 -15   16.29   14.13
  -9   1  15  -13.42   13.18
  -9   1  15    2.03   30.16
   8  -1 -15   15.63    9.88
  -8   1  15   -2.71   12.69
  -8   1  15    7.60    6.88
   7  -1 -15   -6.10    8.37
  -7   1  15    9.42   10.65
  -7   1  15   13.50    6.07
   6  -1 -15   16.00    7.99
  -6   1  15   46.92   11.73
  -6   1  15   26.78    6.03
   5  -1 -15   27.43    6.63
  -5   1  15   31.48    9.84
  -5   1  15   15.55    5.43
   4  -1 -15   79.37    9.12
  -4   1  15   85.05    7.85
  -4   1  15   69.53   13.42
   3  -1 -15   46.22    7.61
  -3   1  15   74.71   12.42
   2  -1 -15   36.28    7.66
   2  -1 -15   30.20    5.97
  -2   1  15   23.78    9.18
   1  -1 -15   94.27   10.55
   1  -1 -15   75.51    8.74
  -1   1  15   68.74   13.88
   0  -1 -15   16.44    5.99
   0  -1 -15   22.33    6.16
   0   1  15   23.41    8.19
  -1  -1 -15   69.16    8.92
  -1  -1 -15   63.85   10.76
   1   1  15   75.39   14.23
  -2  -1 -15    0.07    6.42
  -2  -1 -15   20.07    8.82
  -3  -1 -15   27.71   11.18
  -3  -1 -15   22.71    7.99
   3   1  15    9.09   11.49
  -9   2  15   18.40   15.12
  -9   2  15   17.05    9.25
   8  -2 -15  -12.37   10.69
  -8   2  15    8.49   13.41
  -8   2  15    0.44    7.58
   7  -2 -15   28.21    8.04
  -7   2  15   44.53   12.66
  -7   2  15   40.45    7.92
   6  -2 -15   70.39    9.83
  -6   2  15   55.81    8.82
  -6   2  15   65.38   13.56
   5  -2 -15    9.57    6.73
  -5   2  15   -3.10    8.33
  -5   2  15   -0.03    5.33
   4  -2 -15   30.42    8.10
  -4   2  15   25.68    6.56
  -4   2  15   45.49   10.49
   3  -2 -15   26.70    6.48
   3  -2 -15   20.60    6.11
  -3   2  15   31.12    9.77
   2  -2 -15  133.69   12.12
   2  -2 -15  111.88   10.11
  -2   2  15  111.78   14.00
   1  -2 -15   70.28    9.91
   1  -2 -15   76.80    9.25
  -1   2  15   88.80   12.86
   0  -2 -15   -2.51    7.59
   0  -2 -15   14.43    6.89
   0   2  15    8.17    8.35
  -1  -2 -15   26.23    9.50
  -1  -2 -15   28.20    6.74
   1   2  15   23.36   10.43
  -2  -2 -15    2.93    6.98
  -2  -2 -15   29.06   10.82
   2   2  15   14.05   11.27
   9  -3 -15   -1.24    8.15
  -9   3  15    6.64    9.94
  -9   3  15  -13.93   14.76
  -8   3  15   21.83   12.42
  -8   3  15   19.82    8.57
   7  -3 -15    1.79    5.95
  -7   3  15    7.27   11.95
  -7   3  15    2.56    7.16
   6  -3 -15   35.61    9.01
  -6   3  15   40.84   10.84
  -6   3  15   24.88    7.21
   5  -3 -15   50.03    9.22
  -5   3  15   56.55    8.21
  -5   3  15   70.80   12.52
   4  -3 -15    7.94    6.79
  -4   3  15   14.87    6.14
  -4   3  15   18.05    9.32
   3  -3 -15   20.40    7.35
  -3   3  15   25.93    9.98
   2  -3 -15    9.26    7.05
   1  -3 -15   46.60    9.93
   1  -3 -15   54.13    9.76
  -1   3  15   60.84   12.83
   0  -3 -15   32.63    8.14
   0  -3 -15   45.18   10.12
   0   3  15   40.23   10.78
  -1  -3 -15    6.78    8.30
   1   3  15   16.66   10.20
  -8   4  15   35.65   14.38
  -8   4  15   37.46   10.46
   7  -4 -15   23.98   10.06
  -7   4  15   37.58   13.30
  -7   4  15   12.51    8.45
  -6   4  15   28.37   12.16
  -6   4  15   12.56    7.26
   5  -4 -15    9.29    6.95
  -5   4  15    5.67    6.62
  -5   4  15    4.04   10.87
   4  -4 -15   38.94    8.12
  -4   4  15   46.02   11.87
  -4   4  15   58.07   10.47
   3  -4 -15   64.68   10.52
   3  -4 -15   78.16   11.40
  -3   4  15   76.93   15.56
   2  -4 -15   15.91    8.09
   2  -4 -15    7.46    6.96
   1  -4 -15   22.49    9.49
   1  -4 -15   15.52    8.02
  -1   4  15   25.17   11.39
   0  -4 -15    4.90    8.24
   0  -4 -15   12.01   10.39
   0   4  15   18.05   11.00
   8  -5 -15   13.18    9.54
  -8   5  15    5.05   12.55
   7  -5 -15   16.12    8.15
  -7   5  15   30.91   10.76
  -7   5  15    2.64    9.29
   6  -5 -15    4.32    7.66
  -6   5  15    4.25    8.90
  -6   5  15   -4.92   11.86
   5  -5 -15   14.01    8.88
  -5   5  15    2.31   11.09
  -5   5  15    7.22    7.37
   4  -5 -15   11.97    9.68
  -4   5  15    2.97    7.99
  -3   5  15   56.37   13.61
   2  -5 -15   37.53   10.24
   2  -5 -15   27.25    8.68
   1  -5 -15    9.30    9.49
  -1   5  15   21.64   13.91
   6  -6 -15   12.78   10.10
  -6   6  15    0.84    9.03
  -6   6  15   -3.61   14.18
   5  -6 -15    1.36    8.70
  -5   6  15   24.17   10.81
  -5   6  15   24.44   12.16
   4  -6 -15   12.67    9.87
   4  -6 -15    0.07    9.62
  -4   6  15   22.47   14.19
  -4   6  15  -11.85    9.80
  -1  10 -16   -5.98    6.64
  -2  10 -16   -3.65    7.48
   2 -10  16   -4.57   11.44
   2 -10  16  -16.88   15.82
   1   9 -16   21.51    7.98
   1   9 -16   22.48   13.97
  -1  -9  16   26.83   12.44
   0   9 -16   16.05    6.97
   0  -9  16    3.60   11.98
  -1   9 -16    0.29    7.21
   1  -9  16   -2.76   14.25
   1  -9  16    6.00    9.92
  -2   9 -16    7.82    6.36
   2  -9  16    4.14   15.42
   2  -9  16    1.75    9.40
  -3   9 -16   -4.08    6.16
   3  -9  16   25.90   14.29
   3  -9  16    1.90   11.73
  -4   9 -16   -0.69    7.67
   4  -9  16    4.53   12.14
   4  -9  16  -23.34   16.09
   3   8 -16   24.41    7.69
   3   8 -16   27.08   11.48
  -3  -8  16   14.08   10.62
   2   8 -16   12.81   11.73
   2   8 -16   14.99    7.68
  -2  -8  16   23.38    9.32
   1   8 -16   17.81   10.08
   1   8 -16    5.54    6.97
  -1  -8  16    5.23    9.76
   0   8 -16   -1.04    5.68
   0  -8  16   -8.34    7.92
   0  -8  16    9.74   14.58
   1  -8  16   25.79    8.58
   1  -8  16   -6.11   14.41
  -2   8 -16   19.05    6.66
   2  -8  16   39.72   11.06
   2  -8  16   25.54   13.80
  -3   8 -16   13.69    6.16
   3  -8  16   19.68   14.47
   3  -8  16  -10.92   10.82
  -4   8 -16   -6.56    6.14
   4  -8  16   16.98   12.18
  -5   8 -16   13.35    8.68
   4   7 -16   -1.43    7.14
   4   7 -16    4.45   10.71
  -4  -7  16   14.49   14.33
   3   7 -16    9.92    6.30
   3   7 -16   26.09   11.36
  -3  -7  16   -5.12   10.46
   2   7 -16   33.19   11.51
   2   7 -16   14.11    6.43
  -2  -7  16   24.30   11.01
   1   7 -16   34.52   12.17
  -1  -7  16   16.57    9.00
   0   7 -16    1.37    5.99
   0  -7  16   21.04   13.67
   0  -7  16   -1.85    8.97
   1  -7  16   21.03   13.97
   1  -7  16   23.81   11.79
  -2   7 -16   33.74    6.81
   2  -7  16   25.28   10.08
   2  -7  16   50.59   12.17
  -3   7 -16   27.13   11.02
   3  -7  16   39.43   13.48
   3  -7  16   51.23   13.11
  -4   7 -16    6.20    6.30
   4  -7  16   14.48   12.54
   4  -7  16    8.45   10.39
  -5   7 -16   -0.68    7.64
   5  -7  16    6.55   10.26
   5  -7  16   15.58   16.57
   5   6 -16   28.49    7.72
   5   6 -16   17.21   11.55
  -5  -6  16    6.87   14.49
   4   6 -16   22.46    6.95
   4   6 -16   20.79   10.66
  -4  -6  16   20.84   10.09
   3   6 -16   14.51    9.52
   3   6 -16    7.10    6.67
  -3  -6  16   11.80    9.15
   2   6 -16    8.58    8.23
   2   6 -16   12.45    5.89
  -2  -6  16   23.35    9.19
   1   6 -16    3.09    5.29
  -1  -6  16   23.44   12.16
  -1  -6  16   10.86    9.12
   0   6 -16   63.13    9.82
   0  -6  16   66.62   14.39
  -1   6 -16   22.98    7.14
   1  -6  16   28.81   10.57
  -2   6 -16    0.23    5.30
   2  -6  16  -13.88   11.60
  -3   6 -16   13.85    6.04
   3  -6  16   18.07   10.64
   3  -6  16    1.84   12.00
  -4   6 -16   14.10   11.45
   4  -6  16   46.20   13.90
   4  -6  16   19.15    9.99
  -5   6 -16   28.41    8.60
   5  -6  16   33.61   14.48
   6   5 -16   -6.23    7.41
   6   5 -16    0.03   12.09
  -6  -5  16  -12.26   16.89
   5   5 -16   17.92   10.42
   5   5 -16    7.34    6.28
  -5  -5  16    3.73   13.17
   4   5 -16   44.39   10.12
   4   5 -16   31.32    6.38
  -4  -5  16   40.20   12.08
   3   5 -16   11.46    7.31
   3   5 -16   13.31    6.57
  -3  -5  16   24.51    9.63
   2   5 -16    6.20    7.38
   2   5 -16   -3.26    4.94
  -2  -5  16   -7.55    7.31
   1   5 -16    4.86    4.91
  -1  -5  16   -5.17   10.28
  -1  -5  16   -5.33    7.16
   0   5 -16   49.44    7.76
   0  -5  16   47.36   11.44
   0  -5  16   44.97   11.97
  -1   5 -16   62.17    8.27
   1  -5  16   77.06   13.94
   1  -5  16   77.20   13.47
  -2   5 -16   12.31    5.52
   2  -5  16   22.11   11.84
   3  -5  16    8.87   10.61
   3  -5  16    8.89    9.43
  -4   5 -16    7.40    6.08
   4  -5  16  -13.78    9.46
  -5   5 -16   15.48    8.55
   5  -5  16    0.71   13.09
   6   4 -16   11.32   10.84
   6   4 -16   19.77    7.83
  -6  -4  16   41.09   16.17
   5   4 -16   22.56    6.90
   5   4 -16   35.83    9.35
   4   4 -16   21.42    8.42
   4   4 -16   15.32    6.28
  -4  -4  16   29.92    9.46
   3   4 -16   -2.05    6.17
   3   4 -16   -1.94    4.92
  -3  -4  16   -0.52    8.04
   2   4 -16   94.09   10.01
   2   4 -16  104.95   10.81
  -2  -4  16  117.68   14.37
   1   4 -16   96.83    9.45
  -1  -4  16   68.77   12.14
  -1  -4  16   98.84   14.83
   0   4 -16   18.68    6.41
   0  -4  16   13.63    9.38
   0  -4  16   20.87    9.36
  -1   4 -16   24.55    6.24
   1  -4  16   24.83    8.87
   1  -4  16   38.93   10.33
  -2   4 -16    2.47    6.01
   2  -4  16    8.20    8.85
   2  -4  16    0.37    9.31
  -3   4 -16   53.45    8.77
   3  -4  16   73.52   13.71
   3  -4  16   70.95   12.76
  -4   4 -16   16.81    7.23
   4  -4  16   18.95   12.17
   4  -4  16   17.58    9.84
   5  -4  16    4.05   11.17
   7   3 -16   -1.87    7.91
   7   3 -16   -3.68   10.81
  -7  -3  16   -6.78   15.02
   6   3 -16   35.54   10.27
   6   3 -16   18.42    8.13
  -6  -3  16   30.08   12.29
   5   3 -16   15.28    8.57
   5   3 -16   27.01    7.93
  -5  -3  16   45.04   13.93
   4   3 -16   -5.92    6.31
   4   3 -16    9.70    5.63
  -4  -3  16    0.73    7.92
   3   3 -16   12.09    6.17
   3   3 -16    6.46    5.18
  -3  -3  16   11.08    7.37
   2   3 -16   26.24    6.31
  -2  -3  16   17.58    9.11
   1   3 -16  125.21   11.13
  -1  -3  16  115.49   13.39
  -1  -3  16  139.88   13.95
   0   3 -16   47.23    7.97
   0  -3  16   56.52   11.66
   0  -3  16   56.82   11.02
  -1   3 -16    0.65    4.54
   1  -3  16  -10.10    7.73
   1  -3  16    5.45    8.28
   2  -3  16    0.13    9.15
   2  -3  16    0.57    8.90
  -3   3 -16    2.96    6.56
  -3   3 -16   16.86    7.35
   3  -3  16    6.94    9.89
   3  -3  16    4.80   10.06
  -4   3 -16   29.34    7.91
  -4   3 -16   29.61    7.97
   4  -3  16   29.33   11.31
   4  -3  16   42.82   12.33
   7   2 -16   17.80    8.17
   7   2 -16   23.76   10.73
  -7  -2  16   14.76   14.52
   6   2 -16   18.11    8.39
   6   2 -16   20.57    9.04
  -6  -2  16   30.68   11.77
   5   2 -16   13.24    7.18
   5   2 -16   21.20    7.38
  -5  -2  16   12.15    9.33
   4   2 -16   41.90    6.87
  -4  -2  16   44.41   10.18
   3   2 -16   76.94    9.90
   3   2 -16   75.18    8.29
  -3  -2  16   86.38   11.45
  -3  -2  16  104.21   15.12
   2   2 -16   34.45    7.18
  -2  -2  16   35.61   10.46
  -2  -2  16   39.41   11.11
   1   2 -16   85.27    9.09
  -1  -2  16   80.49   15.08
   0   2 -16    1.98    5.09
   0   2 -16   12.54    6.42
   0  -2  16   12.55    9.20
  -1   2 -16   75.70    8.74
  -1   2 -16   64.34    8.14
   1  -2  16   76.19   13.09
   1  -2  16   63.97   12.53
  -2   2 -16   57.02    9.45
  -2   2 -16   66.75    9.78
   2  -2  16   71.95   12.39
  -3   2 -16   -1.98    7.70
  -3   2 -16   10.69    6.75
   3  -2  16   13.10   10.07
  -4   2 -16   11.77    8.20
  -4   2 -16   10.16    7.53
   4  -2  16    6.67   11.87
   8   1 -16   15.46   10.66
   8   1 -16   33.50   12.58
  -8  -1  16   22.03   18.34
   7   1 -16    5.04    8.07
   7   1 -16   26.01    8.86
   6   1 -16    8.37    8.51
   6   1 -16   10.22    7.31
  -6  -1  16   35.41   11.60
   5   1 -16   12.59    7.00
   5   1 -16    4.82    6.43
  -5  -1  16   19.18    9.94
   4   1 -16   -0.15    5.79
  -4  -1  16    1.99    8.29
   3   1 -16   95.02    9.74
  -3  -1  16   92.71   12.28
   2   1 -16  129.61    8.56
   2   1 -16  123.23   11.05
  -2  -1  16  124.28   14.35
   1   1 -16    2.21    6.26
   1   1 -16   19.16    5.52
  -1  -1  16   12.23    8.64
   0   1 -16   23.87    5.96
   0   1 -16   26.04    6.27
   0  -1  16   29.85   10.52
  -1   1 -16   -0.65    5.83
  -1   1 -16   11.54    6.05
   1  -1  16   -3.15    9.34
  -2   1 -16   82.34   10.82
  -2   1 -16   70.56    9.81
   2  -1  16   68.50   12.98
  -3   1 -16   34.82   10.21
  -3   1 -16   23.98    6.86
   3  -1  16   44.64   12.97
   8   0 -16   24.89    9.78
  -8   0  16   48.29   15.63
   7   0 -16   26.12    7.99
  -7   0  16   55.15   15.69
   6   0 -16   13.84    6.83
  -6   0  16   30.16   12.39
   5   0 -16   32.47    8.32
  -5   0  16   44.08   12.82
  -5   0  16   37.73    5.81
   4   0 -16   54.07    9.65
  -4   0  16   45.23   11.77
  -4   0  16   45.90    6.90
   3   0 -16   79.69   10.03
   3   0 -16   83.48    8.36
  -3   0  16   80.94   15.01
   2   0 -16   17.87    5.81
   2   0 -16   21.80    6.72
  -2   0  16   15.38   10.14
   1   0 -16   45.91    7.41
   1   0 -16   52.14    9.52
  -1   0  16   61.11   12.12
   0   0 -16   82.36    9.24
   0   0 -16   72.85    9.34
   0   0  16   87.81   15.09
  -1   0 -16   24.57    7.70
  -1   0 -16    1.89    5.68
   1   0  16    7.69    8.00
  -2   0 -16   35.58    8.97
  -2   0 -16   41.45    8.18
   2   0  16   46.13   11.34
  -3   0 -16    5.96    9.14
  -3   0 -16    7.99    7.86
   3   0  16   -5.73   10.20
   8  -1 -16   14.39   10.19
  -8   1  16   33.53   19.59
   7  -1 -16   26.95   13.87
  -7   1  16   12.28    6.68
  -7   1  16   -4.10   12.91
   6  -1 -16    2.86    7.70
  -6   1  16   -6.86    5.80
   5  -1 -16   11.21    7.92
  -5   1  16   21.81    9.55
  -5   1  16   11.55    5.50
   4  -1 -16   96.72   10.75
  -4   1  16   94.79   16.44
  -4   1  16   86.49    9.25
   3  -1 -16   34.13    7.72
   3  -1 -16   24.23    5.92
   2  -1 -16   36.99    7.16
   2  -1 -16   27.19    6.92
  -2   1  16   27.62    8.95
   1  -1 -16    6.89    6.30
   1  -1 -16    4.08    6.22
  -1   1  16   13.36    9.54
   0  -1 -16  102.73   11.04
   0   1  16   97.05   14.84
  -1  -1 -16   64.70   10.94
  -1  -1 -16   78.97   11.23
   1   1  16   95.57   17.53
  -2  -1 -16   16.19   10.04
  -2  -1 -16    2.83    7.14
   2   1  16   -1.96   11.23
   8  -2 -16   -9.90    9.71
  -8   2  16  -25.08   25.67
  -8   2  16   -7.91    8.19
   7  -2 -16    4.64    8.22
  -7   2  16    4.11    7.63
   6  -2 -16   16.33    9.33
  -6   2  16   14.66   12.21
  -6   2  16   19.65    7.25
   5  -2 -16   42.69    8.95
  -5   2  16   44.54    7.15
  -5   2  16   48.66   12.63
   4  -2 -16   32.49    9.09
  -4   2  16   41.80    7.28
  -4   2  16   36.43   11.46
   3  -2 -16   -3.41    6.24
   3  -2 -16   18.57    6.28
  -3   2  16   10.73    9.76
   2  -2 -16   68.04   10.50
   2  -2 -16   55.55    9.69
  -2   2  16   63.15   12.21
   1  -2 -16    2.62    7.34
   1  -2 -16   20.04    7.65
   0  -2 -16   37.96    9.36
   0  -2 -16   39.57    8.96
   0   2  16   31.62   11.08
  -1  -2 -16   34.16   10.03
  -1  -2 -16   29.13    7.99
   1   2  16   11.14   12.13
   8  -3 -16  -14.01   10.08
  -8   3  16   12.62    9.03
  -8   3  16    6.94   30.36
   7  -3 -16    6.37    8.45
  -7   3  16    2.03   13.47
  -7   3  16   -4.17    7.98
   6  -3 -16   30.17    9.17
  -6   3  16   44.30    8.81
  -6   3  16   42.13   12.87
   5  -3 -16   55.33   17.57
  -5   3  16   58.56    9.68
  -5   3  16   37.69   13.48
   4  -3 -16    7.96    8.44
  -4   3  16   27.98   12.60
  -4   3  16   17.92    8.27
   3  -3 -16   16.25    7.10
   3  -3 -16   16.84    7.47
  -3   3  16   22.14   11.83
   2  -3 -16    3.98    6.89
  -2   3  16    5.05    9.55
   1  -3 -16   68.02   11.61
   1  -3 -16   74.33   11.78
  -1   3  16   73.71   13.97
   0  -3 -16   15.66    8.49
   0   3  16   31.30   12.89
   7  -4 -16   19.82    7.49
  -7   4  16   -2.85    8.38
  -7   4  16  -14.31   28.54
   6  -4 -16   26.69    8.61
  -6   4  16    2.35    8.02
   5  -4 -16  -10.27    7.12
  -5   4  16    2.89   22.57
  -5   4  16   19.87    8.31
   4  -4 -16   33.17    9.50
  -4   4  16   19.75   13.65
  -4   4  16   19.50    8.01
   3  -4 -16    6.10    8.06
  -3   4  16   -1.59   12.18
   2  -4 -16   17.68    9.38
   2  -4 -16   28.77   10.15
  -2   4  16   14.29   12.72
  -1   4  16   57.86   15.20
   6  -5 -16   16.20    8.20
  -6   5  16  -18.69   13.06
   5  -5 -16   22.30    8.74
  -5   5  16   36.55   12.82
   4  -5 -16   21.64   12.09
  -4   5  16   21.02   13.75
  -3   5  16   39.23   12.32
   0   9 -17    0.05    7.07
   0  -9  17   -2.01   10.85
  -1   9 -17    3.90    6.88
   1  -9  17   12.97   19.32
   1  -9  17   17.77   20.04
  -2   9 -17    9.33    7.21
   2  -9  17   -4.34   16.77
   2  -9  17   19.99   12.83
   2   8 -17    9.66    7.84
   2   8 -17  -19.85   13.12
  -2  -8  17    4.98   11.63
   1   8 -17   24.96    7.68
  -1  -8  17   19.53   11.09
  -1  -8  17   32.76   16.58
   0   8 -17    2.06    6.24
  -1   8 -17    5.36    7.59
   1  -8  17   19.65   16.44
   1  -8  17    8.66   11.21
  -2   8 -17    2.21    6.66
   2  -8  17   32.33   12.62
  -3   8 -17   11.63    7.11
   3  -8  17   -2.81   13.45
   3  -8  17   11.13   14.97
   3   7 -17   15.57   12.27
   3   7 -17    0.70    6.66
  -3  -7  17   -6.18   11.59
   2   7 -17    3.59    6.55
   2   7 -17   13.36   11.60
  -2  -7  17   23.45   11.41
   1   7 -17   -7.02    8.05
  -1  -7  17   23.66   16.13
   0   7 -17   10.60    6.23
   0  -7  17   22.87    9.52
   0  -7  17  -15.53   13.79
  -1   7 -17    6.21    6.72
   1  -7  17   11.85   10.47
   1  -7  17   28.83   14.82
  -2   7 -17   52.20    9.12
   2  -7  17   26.12   12.51
   2  -7  17   49.96   14.58
  -3   7 -17   -4.22    6.50
   3  -7  17    2.92   14.64
   3  -7  17   10.34   14.26
  -4   7 -17   -1.76    8.08
   4  -7  17   24.93   11.47
   4   6 -17  -18.71   11.50
   4   6 -17   47.06   15.65
  -4  -6  17    9.62   11.79
   3   6 -17   14.85   11.15
   3   6 -17   11.00    6.34
  -3  -6  17   13.30    9.08
   2   6 -17    5.89    5.78
   2   6 -17   30.74   10.16
  -1  -6  17   21.68    9.00
   0   6 -17    9.35    7.22
   0  -6  17   14.78   12.40
   0  -6  17   19.57   10.19
   1  -6  17   17.15   10.49
   1  -6  17   40.70   13.39
  -2   6 -17   25.84    6.64
   2  -6  17   48.80   13.63
   2  -6  17   47.74   13.56
  -3   6 -17    9.13    6.66
   3  -6  17   -7.87   11.46
   3  -6  17  -12.63   12.79
  -4   6 -17   -2.70    6.70
   4  -6  17   -2.15   11.29
   4  -6  17   10.17   13.51
   5   5 -17   -6.49   11.62
   5   5 -17  -11.37    7.22
  -5  -5  17  -13.06   13.95
   4   5 -17    5.13    9.50
   4   5 -17    6.54    6.06
  -4  -5  17    7.29   10.43
   3   5 -17   -3.20    5.75
   3   5 -17    7.47    8.40
   2   5 -17   46.50    9.61
   2   5 -17   37.27    7.74
  -2  -5  17   44.99   13.19
  -2  -5  17   40.33    9.96
  -1  -5  17   29.72   10.26
  -1  -5  17   38.88   10.71
   0   5 -17   35.82    7.56
   0  -5  17   46.52   12.54
  -1   5 -17   34.26    7.62
   1  -5  17   46.28   14.40
   1  -5  17   30.13   12.36
  -2   5 -17   -4.54   11.89
   2  -5  17   29.72   12.86
  -3   5 -17   13.39    7.83
   3  -5  17   24.21   11.03
   3  -5  17   29.66   13.10
  -4   5 -17   19.38    8.02
   4  -5  17    0.47   13.41
   6   4 -17    4.64   11.35
  -6  -4  17   53.49   19.77
   5   4 -17   15.21    9.38
   5   4 -17    9.32    7.20
  -5  -4  17    4.48   12.06
   4   4 -17   42.68    9.00
   4   4 -17   31.10    7.44
  -4  -4  17   31.41   12.20
   3   4 -17    3.67    7.53
   3   4 -17    2.84    5.69
  -3  -4  17   -4.83    7.89
   2   4 -17   15.03    6.53
  -2  -4  17   12.50    9.50
  -2  -4  17    7.58   11.29
   1   4 -17   12.45    5.78
  -1  -4  17    4.51    9.36
  -1  -4  17   15.88    9.70
   0   4 -17   65.22    9.12
   0  -4  17   91.84   12.98
   0  -4  17   74.22   12.40
  -1   4 -17   48.99    9.33
   1  -4  17   50.46   12.62
  -2   4 -17    1.81    6.47
   2  -4  17    4.51   11.13
   2  -4  17    0.50   10.78
  -3   4 -17    1.74    8.64
   3  -4  17    0.16   11.46
   3  -4  17   15.65   11.44
  -4   4 -17   19.16    7.90
   6   3 -17   15.74    9.77
  -6  -3  17   -3.36   15.90
   5   3 -17   11.89    8.70
   5   3 -17    5.09    7.39
  -5  -3  17   13.99   12.15
   4   3 -17   34.19    7.38
   4   3 -17   18.05    7.64
   3   3 -17   22.21    7.13
   3   3 -17   20.76    6.41
  -3  -3  17   31.06   11.08
   2   3 -17   11.64    6.09
  -2  -3  17   19.87    9.37
  -2  -3  17   21.48   10.87
   1   3 -17   50.27    9.15
  -1  -3  17   66.74   12.04
  -1  -3  17   53.62   11.69
   0  -3  17   37.01    8.94
   0  -3  17   36.25   10.61
  -1   3 -17   43.13    8.68
   1  -3  17   73.12   14.95
  -2   3 -17    1.21    5.78
   2  -3  17    6.96    9.51
   7   2 -17   15.62   10.79
   7   2 -17   -4.07    9.00
  -7  -2  17    5.92   19.36
   6   2 -17   24.52    9.05
   6   2 -17   12.08   12.35
  -6  -2  17   28.33   14.83
   5   2 -17    9.10    6.68
   5   2 -17   18.74    7.72
   4   2 -17    0.76    6.90
   4   2 -17    0.89    6.28
  -4  -2  17   10.61    9.15
   3   2 -17   17.98    7.81
  -3  -2  17    0.68   10.45
   2   2 -17   83.95   10.48
  -2  -2  17  101.64   13.64
   1   2 -17   92.52   11.02
   0   2 -17    4.52    5.59
   0  -2  17   -4.66   10.35
  -1   2 -17   12.47    5.87
   1  -2  17   11.72   11.10
  -2   2 -17   11.83    7.37
  -3   2 -17   34.51   10.32
   3  -2  17   47.63   12.52
   7   1 -17   16.74    9.13
  -7  -1  17   34.64   16.55
   6   1 -17   12.43   17.42
  -6  -1  17   29.45   15.39
   5   1 -17   60.39   11.04
  -5  -1  17   39.06   12.74
   4   1 -17    2.11    7.61
   3   1 -17   31.86    8.60
  -3  -1  17   32.65   10.29
   2   1 -17   16.98    6.86
  -2  -1  17   40.63   10.48
   1   1 -17   67.02   11.16
  -1  -1  17   92.37   14.66
   0   1 -17   54.74    9.20
   0  -1  17   60.22   12.72
  -1   1 -17   15.07    6.06
  -1   1 -17   10.32    6.60
  -2   1 -17   30.84    8.79
  -2   1 -17   14.09    7.61
   2  -1  17   32.69   12.93
   7   0 -17   29.25   10.16
  -7   0  17   41.66   19.11
   6   0 -17   14.73    9.20
  -6   0  17   18.10   12.81
   5   0 -17    6.05    9.05
  -5   0  17  -16.65   11.06
   4   0 -17   63.10   10.73
  -4   0  17   95.71   17.18
   3   0 -17   58.05   10.68
  -3   0  17   97.11   16.79
   2   0 -17   22.64    6.24
   2   0 -17    4.49    6.48
  -2   0  17   15.51    9.77
   1   0 -17   18.51    6.85
   1   0 -17   -0.77    6.40
  -1   0  17    6.07    9.76
   0   0 -17  -13.52    7.32
   0   0 -17   -4.36    6.85
   0   0  17  -13.57   11.35
  -1   0 -17   59.18   10.47
   1   0  17   58.14   12.40
  -2   0 -17   53.25   17.07
   2   0  17   90.00   17.93
   7  -1 -17   36.35    9.12
  -7   1  17   27.58   13.46
   6  -1 -17    4.49    9.49
  -6   1  17   33.92   14.26
   5  -1 -17   12.08    8.26
  -5   1  17   19.19    6.54
  -5   1  17   -8.84   20.34
   4  -1 -17   15.52   12.80
   4  -1 -17   27.07    6.92
  -4   1  17   18.33   10.86
   3  -1 -17   30.36    8.64
   3  -1 -17   22.17    6.99
  -3   1  17   14.04   14.24
   2  -1 -17   66.07    9.44
   2  -1 -17   60.08   10.40
  -2   1  17   52.37   25.33
   1  -1 -17   16.44    8.21
   1  -1 -17    5.52    7.43
  -1   1  17  -11.77    9.62
   0  -1 -17   23.36    8.74
   0  -1 -17   33.14    9.14
   0   1  17   29.33   11.63
  -1  -1 -17   28.83    9.50
   1   1  17   35.34   14.26
  -7   2  17  -13.13    7.69
  -7   2  17    6.64   14.83
   6  -2 -17   18.02   10.41
  -6   2  17   36.48   16.23
  -5   2  17   65.07   10.56
  -5   2  17   98.08   20.03
   4  -2 -17   35.75    8.13
   4  -2 -17   22.21    8.34
  -4   2  17   37.31   16.12
   3  -2 -17   19.62    7.69
   3  -2 -17    5.89    7.88
  -3   2  17   27.77   11.48
   2  -2 -17    0.51    7.13
   2  -2 -17    1.10    8.06
  -2   2  17   -9.92   10.48
   1  -2 -17   42.03    9.85
   1  -2 -17   24.52    9.20
  -1   2  17   34.46   14.61
   0  -2 -17   52.98   10.88
   0  -2 -17   78.83   11.64
   0   2  17   84.08   16.95
   6  -3 -17    2.22   11.35
  -6   3  17   -5.00    8.26
  -6   3  17    3.15   12.66
   5  -3 -17   -1.09    8.16
  -5   3  17   19.72   11.61
  -5   3  17   12.30    8.94
   4  -3 -17   24.68    8.99
   4  -3 -17   45.91    9.39
  -4   3  17   20.10   12.39
   3  -3 -17   13.87    8.74
  -3   3  17   14.20   12.99
   2  -3 -17   24.84    8.29
   2  -3 -17   13.11    9.33
  -2   3  17   -8.31   11.79
   5  -4 -17   -2.34    9.21
  -5   4  17    4.85    9.06
  -5   4  17   -0.68   13.80
   4  -4 -17   29.56   10.84
   4  -4 -17    5.04    9.18
  -4   4  17   26.80   14.39
   2   7 -18   28.66   14.11
   2   7 -18   -7.11    6.85
  -2  -7  18   -3.37   11.83
   1   7 -18   25.47    7.90
  -1  -7  18   50.13   12.18
  -1  -7  18   30.23   15.84
   0   7 -18   17.95    7.40
   0  -7  18    2.52   15.34
   0  -7  18    3.80   12.89
  -1   7 -18    0.44    7.08
   1  -7  18  -24.41   14.06
   1  -7  18   35.87   16.10
  -2   7 -18   -1.66    6.75
   2  -7  18   21.99   16.05
   2  -7  18   -7.05   29.76
   3   6 -18   59.52   12.82
   3   6 -18   56.39   10.14
  -3  -6  18   36.05   12.26
  -2  -6  18   26.17   11.73
  -2  -6  18   18.87   14.79
   1   6 -18   -0.20    7.47
  -1  -6  18   19.08   13.48
  -1  -6  18   43.31   14.67
   0  -6  18   16.54   16.08
   0  -6  18   21.78   13.84
  -1   6 -18    2.57    6.91
   1  -6  18    7.91   13.52
   1  -6  18   34.38   21.91
  -2   6 -18   20.43    8.07
   2  -6  18   24.90   14.04
   2  -6  18   30.32   19.93
   4   5 -18   -0.25    7.06
   4   5 -18  -10.12   10.45
  -4  -5  18   -3.24   12.51
   3   5 -18   24.60    8.27
  -3  -5  18   31.06   12.82
   2   5 -18   34.33    7.79
  -2  -5  18   32.44   13.98
   1   5 -18    2.37    6.46
  -1  -5  18   -5.38   12.04
  -1  -5  18  -21.01   15.44
   0   5 -18   -1.16    6.55
   0  -5  18   16.24   16.28
   0  -5  18   30.10   11.52
  -1   5 -18   -4.79    6.41
   1  -5  18   50.65   16.12
   1  -5  18  -13.93   17.86
  -2   5 -18   28.92    8.05
   2  -5  18   -5.65   28.83
   2  -5  18   20.80   12.90
   3  -5  18   24.55   14.54
   5   4 -18   42.74   12.34
   5   4 -18   37.91    8.44
  -5  -4  18   39.30   16.95
   4   4 -18   51.53   10.59
   4   4 -18   48.30    9.41
  -4  -4  18   40.84   15.48
   3   4 -18   26.05    8.35
   3   4 -18   35.31    9.59
  -3  -4  18    3.71   13.01
  -3  -4  18   41.38   13.52
   2   4 -18   15.74    6.51
  -2  -4  18   20.01   10.90
  -2  -4  18   -6.08   11.86
   1   4 -18    7.14    7.45
  -1  -4  18   -9.49   20.51
   0   4 -18   19.23    6.80
   0  -4  18   33.99   11.84
   0  -4  18   53.41   18.10
  -1   4 -18   16.13    6.88
   1  -4  18   -4.98   23.84
   1  -4  18   -2.27   11.67
  -2   4 -18   45.50    9.96
   2  -4  18   10.59   14.14
   5   3 -18   29.37    8.82
   5   3 -18   20.46    7.70
  -5  -3  18   45.17   15.10
   4   3 -18   29.55    8.54
   4   3 -18   43.24    9.25
  -4  -3  18   56.75   15.04
   3   3 -18    4.46    6.85
  -3  -3  18   15.52   11.83
   2   3 -18   22.63    8.71
  -2  -3  18   -0.43   17.70
   1   3 -18   -0.07    7.92
  -1  -3  18  -15.96   22.10
   0   3 -18   37.94    8.26
  -1   3 -18   62.86   10.24
   1  -3  18  104.30   17.85
  -2   3 -18   -4.63    6.99
   2  -3  18   -7.66   12.40
  -6  -2  18   38.22   16.92
   5   2 -18   41.75   11.01
  -5  -2  18   65.31   15.55
   4   2 -18    9.74    7.62
  -4  -2  18   19.59   12.10
   3   2 -18    5.70    7.75
  -3  -2  18  -11.92    9.85
   2   2 -18    4.59    6.53
  -2  -2  18  -13.27   17.76
  -1  -2  18   32.11   15.40
   0   2 -18   23.93    7.43
   0  -2  18   26.43   11.37
  -1   2 -18   25.00    8.86
   1  -2  18    1.34   13.02
  -2   2 -18   23.06    8.42
   2  -2  18   21.28   10.93
   6   1 -18   28.96    9.70
  -6  -1  18   44.51   17.86
   5   1 -18   41.12   11.50
  -5  -1  18    3.40   12.94
   4   1 -18   40.80   11.13
  -4  -1  18   19.90   12.27
   3   1 -18   13.49    7.43
  -3  -1  18    8.44   13.84
   2   1 -18   17.28    7.12
  -2  -1  18   24.88   13.22
   1   1 -18   82.66   11.84
  -1  -1  18  111.58   19.32
   0   1 -18   25.10    8.18
   0  -1  18   12.01   11.45
  -1   1 -18   21.99    7.78
   1  -1  18   16.85   11.84
   6   0 -18   30.53    9.37
  -6   0  18   13.34   16.19
   5   0 -18    3.07    9.60
  -5   0  18   18.22   12.76
   4   0 -18    6.90    7.79
  -4   0  18   -9.70   13.41
   3   0 -18   34.17    8.33
  -3   0  18   18.99   13.46
   2   0 -18   27.54    8.44
  -2   0  18   18.18   12.76
   1   0 -18   43.31    8.64
  -1   0  18   33.91   14.81
   0   0 -18   -8.60   14.53
   0   0 -18   10.78    7.53
   0   0  18   -8.67   11.91
   6  -1 -18    1.90    9.87
  -6   1  18   -5.02   13.04
   5  -1 -18   20.87   10.24
  -5   1  18   18.98   15.36
   4  -1 -18   -1.32    8.87
  -4   1  18   10.60   12.35
   3  -1 -18   22.34    8.70
  -3   1  18   40.40   14.56
   2  -1 -18   36.74    8.87
   2  -1 -18   29.26    8.39
  -2   1  18   49.58   14.31
   1  -1 -18   35.69    8.62
   1  -1 -18    4.00    7.82
  -1   1  18   21.54   12.27
   5  -2 -18   43.12   12.02
  -5   2  18   23.91    8.61
  -5   2  18    6.07   14.42
   4  -2 -18   14.10    8.04
   4  -2 -18   17.59    9.05
  -4   2  18   22.04   12.47
   3  -2 -18   67.31   12.07
   3  -2 -18   51.94   11.45
  -3   2  18   58.15   17.48
   2  -2 -18    7.24    9.44
  -2   2  18   10.21   12.95
   1   6 -19   13.75    8.55
  -1  -6  19   36.66   15.03
   0  -6  19  -12.51   13.21
  -2  -5  19   30.34   14.55
  -2  -5  19   37.26   13.97
   1   5 -19   30.67    9.18
  -1  -5  19   32.26   13.57
  -1  -5  19    9.43   14.16
   0   5 -19   -5.85    7.80
   0  -5  19    2.88   13.03
   0  -5  19   27.87   16.29
  -1   5 -19   -6.78    6.93
   1  -5  19   16.42   14.17
   3   4 -19   21.97    7.66
  -3  -4  19   40.82   13.59
   2   4 -19   17.43    7.69
  -2  -4  19   11.31   11.67
   1   4 -19   -3.41    7.24
  -1  -4  19   23.39   13.97
   0  -4  19   37.88   17.25
  -1   4 -19    3.29    8.04
   1  -4  19   37.24   15.44
   4   3 -19    1.30    7.59
  -4  -3  19   11.43   13.95
   3   3 -19   17.53    9.16
  -3  -3  19   29.03   14.67
  -2  -3  19   76.93   15.49
   1   3 -19   -4.17    6.76
  -1  -3  19   20.89   16.37
   0  -3  19   43.53   16.26
   4   2 -19   24.10    9.07
  -4  -2  19   25.05   12.77
   3   2 -19   -7.46    8.14
  -3  -2  19   10.31   13.49
   2   2 -19    6.55    7.19
  -2  -2  19   25.72   15.49
   1   2 -19    6.31    7.60
  -1  -2  19   34.89   15.60
   0   2 -19   58.66   10.63
   0  -2  19   70.60   14.37
   4   1 -19   24.68    9.06
  -4  -1  19   57.15   18.06
   3   1 -19   27.80    8.89
  -3  -1  19   59.00   17.94
   2   1 -19   15.67    9.45
  -2  -1  19   13.70   13.92
   1   1 -19   13.44    7.91
  -1  -1  19    9.57   14.11
   4   0 -19    3.03    9.45
  -4   0  19   -3.97   15.45
   3   0 -19    5.81    8.68
   2   0 -19   46.90   12.23
  -2   0  19   83.23   17.40
   0   0   0    0.00    0.00


 _exptl_absorpt_process_details 'SADABS 2014/5'
 _exptl_absorpt_correction_type   multi-scan
 _exptl_absorpt_correction_T_max  0.7456
 _exptl_absorpt_correction_T_min  0.6844
 _exptl_special_details
)
 The following wavelength and cell were deduced by SADABS from the
 direction cosines etc. They are given here for emergency use only:
 CELL 0.71148    9.333   10.505   15.091  102.387   99.152  115.608
)

_computing_structure_solution     'SHELXT 2014/5 (Sheldrick, 2014)'
;
_shelx_hkl_checksum                63909
_olex2_submission_special_instructions  'No special instructions were received'
