# Electronic Supplementary Material (ESI) for Journal of Materials Chemistry C.
# This journal is Â© The Royal Society of Chemistry 2021

####################################################################### 
# 
# This file contains crystal structure data downloaded from the 
# Cambridge Structural Database (CSD) hosted by the Cambridge 
# Crystallographic Data Centre (CCDC).
# 
# Full information about CCDC data access policies and citation 
# guidelines are available at http://www.ccdc.cam.ac.uk/access/V1 
# 
# Audit and citation data items may have been added by the CCDC. 
# Please retain this information to preserve the provenance of 
# this file and to allow appropriate attribution of the data. 
# 
#######################################################################

data_e1445a_a
_database_code_depnum_ccdc_archive 'CCDC 2090001'
loop_
_audit_author_name
_audit_author_address
'Andrzej Wojtczak'
;Nicolaus Copernicus University
Poland
;
_audit_update_record             
;
2021-06-15 deposited with the CCDC.	2021-09-28 downloaded from the CCDC.
;

_audit_creation_method           SHELXL-2017/1
_shelx_SHELXL_version_number     2017/1
_chemical_name_systematic        ?
_chemical_name_common            ?
_chemical_melting_point          ?
_chemical_formula_moiety         'C19 H17 B F2 N2 O'
_chemical_formula_sum            'C19 H17 B F2 N2 O'
_chemical_formula_weight         338.15

loop_
_atom_type_symbol
_atom_type_description
_atom_type_scat_dispersion_real
_atom_type_scat_dispersion_imag
_atom_type_scat_source
C C 0.0033 0.0016 'International Tables Vol C Tables 4.2.6.8 and 6.1.1.4'
H H 0.0000 0.0000 'International Tables Vol C Tables 4.2.6.8 and 6.1.1.4'
B B 0.0013 0.0007 'International Tables Vol C Tables 4.2.6.8 and 6.1.1.4'
N N 0.0061 0.0033 'International Tables Vol C Tables 4.2.6.8 and 6.1.1.4'
O O 0.0106 0.0060 'International Tables Vol C Tables 4.2.6.8 and 6.1.1.4'
F F 0.0171 0.0103 'International Tables Vol C Tables 4.2.6.8 and 6.1.1.4'

_space_group_crystal_system      triclinic
_space_group_IT_number           2
_space_group_name_H-M_alt        'P -1'
_space_group_name_Hall           '-P 1'

_shelx_space_group_comment       
;
The symmetry employed for this shelxl refinement is uniquely defined
by the following loop, which should always be used as a source of
symmetry information in preference to the above space-group names.
They are only intended as comments.
;

loop_
_space_group_symop_operation_xyz
'x, y, z'
'-x, -y, -z'

_cell_length_a                   7.9326(10)
_cell_length_b                   8.4946(9)
_cell_length_c                   12.4339(14)
_cell_angle_alpha                83.493(9)
_cell_angle_beta                 75.117(10)
_cell_angle_gamma                84.165(10)
_cell_volume                     802.22(17)
_cell_formula_units_Z            2
_cell_measurement_temperature    293(2)
_cell_measurement_reflns_used    1561
_cell_measurement_theta_min      2.4300
_cell_measurement_theta_max      27.2810

_exptl_crystal_description       needle
_exptl_crystal_colour            red
_exptl_crystal_density_meas      ?
_exptl_crystal_density_method    ?
_exptl_crystal_density_diffrn    1.400
_exptl_crystal_F_000             352
_exptl_transmission_factor_min   ?
_exptl_transmission_factor_max   ?
_exptl_crystal_size_max          0.703
_exptl_crystal_size_mid          0.358
_exptl_crystal_size_min          0.208
_exptl_absorpt_coefficient_mu    0.102
_shelx_estimated_absorpt_T_min   0.932
_shelx_estimated_absorpt_T_max   0.979
_exptl_absorpt_correction_type   analytical
_exptl_absorpt_correction_T_min  0.947
_exptl_absorpt_correction_T_max  0.980
_exptl_absorpt_process_details   'CrysAlisPro 1.171.38.43 (Rigaku OD, 2015)'
_exptl_absorpt_special_details   
;
CrysAlisPro 1.171.38.43 (Rigaku Oxford Diffraction, 2015)
Analytical numeric absorption correction using a multifaceted crystal
model based on expressions derived by R.C. Clark & J.S. Reid.
(Clark, R. C. & Reid, J. S. (1995). Acta Cryst. A51, 887-897)
Empirical absorption correction using spherical harmonics,
 implemented in SCALE3 ABSPACK scaling algorithm.
;
_diffrn_ambient_temperature      293(2)
_diffrn_radiation_wavelength     0.71073
_diffrn_radiation_type           MoK\a
_diffrn_source                   'fine-focus sealed tube'
_diffrn_measurement_device_type  'Oxford Sapphire CCD'
_diffrn_measurement_method       \q/2\q
_diffrn_detector_area_resol_mean 8.2564
_diffrn_reflns_number            5246
_diffrn_reflns_av_unetI/netI     0.0563
_diffrn_reflns_av_R_equivalents  0.0386
_diffrn_reflns_limit_h_min       -9
_diffrn_reflns_limit_h_max       10
_diffrn_reflns_limit_k_min       -11
_diffrn_reflns_limit_k_max       8
_diffrn_reflns_limit_l_min       -14
_diffrn_reflns_limit_l_max       16
_diffrn_reflns_theta_min         2.420
_diffrn_reflns_theta_max         28.227
_diffrn_reflns_theta_full        25.242
_diffrn_measured_fraction_theta_max 0.888
_diffrn_measured_fraction_theta_full 0.999
_diffrn_reflns_Laue_measured_fraction_max 0.888
_diffrn_reflns_Laue_measured_fraction_full 0.999
_diffrn_reflns_point_group_measured_fraction_max 0.888
_diffrn_reflns_point_group_measured_fraction_full 0.999
_reflns_number_total             3516
_reflns_number_gt                2256
_reflns_threshold_expression     'I > 2\s(I)'
_reflns_Friedel_coverage         0.000
_reflns_Friedel_fraction_max     .
_reflns_Friedel_fraction_full    .

_reflns_special_details          
;
 Reflections were merged by SHELXL according to the crystal
 class for the calculation of statistics and refinement.
 
 _reflns_Friedel_fraction is defined as the number of unique
 Friedel pairs measured divided by the number that would be
 possible theoretically, ignoring centric projections and
 systematic absences.
;

_computing_data_collection       'CrysAlisPro 1.171.38.43 (Rigaku OD, 2015)'
_computing_cell_refinement       'CrysAlisPro 1.171.38.43 (Rigaku OD, 2015)'
_computing_data_reduction        'CrysAlisPro 1.171.38.43 (Rigaku OD, 2015)'
_computing_structure_solution    'SHELXT 2014/5 (Sheldrick, 2014)'
_computing_structure_refinement  'SHELXL-2017/1 (Sheldrick, 2017)'
_computing_molecular_graphics    ?
_computing_publication_material  'CIFTAB-2017 (Sheldrick, 2017)'
_refine_special_details          ?
_refine_ls_structure_factor_coef Fsqd
_refine_ls_matrix_type           full
_refine_ls_weighting_scheme      calc
_refine_ls_weighting_details     
'w=1/[\s^2^(Fo^2^)+(0.0615P)^2^+0.0636P] where P=(Fo^2^+2Fc^2^)/3'
_atom_sites_solution_primary     direct
_atom_sites_solution_secondary   difmap
_atom_sites_solution_hydrogens   difmap
_refine_ls_hydrogen_treatment    constr
_refine_ls_extinction_method     'SHELXL-2017/1 (Sheldrick 2017)'
_refine_ls_extinction_coef       0.051(6)
_refine_ls_extinction_expression Fc^*^=kFc[1+0.001xFc^2^\l^3^/sin(2\q)]^-1/4^
_refine_ls_number_reflns         3516
_refine_ls_number_parameters     227
_refine_ls_number_restraints     0
_refine_ls_R_factor_all          0.0886
_refine_ls_R_factor_gt           0.0551
_refine_ls_wR_factor_ref         0.1533
_refine_ls_wR_factor_gt          0.1263
_refine_ls_goodness_of_fit_ref   1.022
_refine_ls_restrained_S_all      1.022
_refine_ls_shift/su_max          0.000
_refine_ls_shift/su_mean         0.000

loop_
_atom_site_label
_atom_site_type_symbol
_atom_site_fract_x
_atom_site_fract_y
_atom_site_fract_z
_atom_site_U_iso_or_equiv
_atom_site_adp_type
_atom_site_occupancy
_atom_site_site_symmetry_order
_atom_site_calc_flag
_atom_site_refinement_flags_posn
_atom_site_refinement_flags_adp
_atom_site_refinement_flags_occupancy
_atom_site_disorder_assembly
_atom_site_disorder_group
O1 O 0.7424(2) 0.34517(14) 0.62139(11) 0.0531(4) Uani 1 1 d . . . . .
B1 B 0.7777(3) 0.3987(2) 0.72024(19) 0.0424(5) Uani 1 1 d . . . . .
F1 F 0.63600(16) 0.37261(13) 0.80968(9) 0.0615(4) Uani 1 1 d . . . . .
F2 F 0.92729(16) 0.31292(12) 0.74078(10) 0.0615(4) Uani 1 1 d . . . . .
N1 N 0.81074(19) 0.58330(16) 0.70209(12) 0.0361(4) Uani 1 1 d . . . . .
C1 C 0.8396(2) 0.66132(19) 0.78889(15) 0.0378(4) Uani 1 1 d . . . . .
C2 C 0.8345(3) 0.5827(2) 0.89527(17) 0.0482(5) Uani 1 1 d . . . . .
H2A H 0.813650 0.475665 0.909067 0.058 Uiso 1 1 calc R U . . .
C3 C 0.8600(3) 0.6628(2) 0.97889(17) 0.0524(5) Uani 1 1 d . . . . .
H3A H 0.854601 0.609212 1.049060 0.063 Uiso 1 1 calc R U . . .
C4 C 0.8940(3) 0.8233(2) 0.96090(19) 0.0535(5) Uani 1 1 d . . . . .
H4A H 0.912642 0.875583 1.018135 0.064 Uiso 1 1 calc R U . . .
C5 C 0.8995(3) 0.9022(2) 0.85817(18) 0.0501(5) Uani 1 1 d . . . . .
H5A H 0.921132 1.009151 0.846047 0.060 Uiso 1 1 calc R U . . .
C6 C 0.8730(2) 0.8243(2) 0.77015(16) 0.0402(4) Uani 1 1 d . . . . .
C7 C 0.8769(2) 0.9050(2) 0.66318(16) 0.0450(5) Uani 1 1 d . . . . .
H7A H 0.898955 1.011840 0.649410 0.054 Uiso 1 1 calc R U . . .
C8 C 0.8489(2) 0.8271(2) 0.58164(16) 0.0431(5) Uani 1 1 d . . . . .
H8A H 0.852670 0.880816 0.511697 0.052 Uiso 1 1 calc R U . . .
C9 C 0.8133(2) 0.66290(19) 0.60081(15) 0.0363(4) Uani 1 1 d . . . . .
C10 C 0.7804(2) 0.5876(2) 0.51375(15) 0.0406(5) Uani 1 1 d . . . . .
H10A H 0.784121 0.646244 0.445434 0.049 Uiso 1 1 calc R U . . .
C11 C 0.7435(2) 0.4326(2) 0.52533(15) 0.0383(4) Uani 1 1 d . . . . .
C12 C 0.7053(2) 0.3504(2) 0.43786(15) 0.0390(4) Uani 1 1 d . . . . .
C13 C 0.6999(3) 0.4253(2) 0.33240(17) 0.0490(5) Uani 1 1 d . . . . .
H13A H 0.720426 0.532398 0.316949 0.059 Uiso 1 1 calc R U . . .
C14 C 0.6654(3) 0.3461(2) 0.25098(17) 0.0495(5) Uani 1 1 d . . . . .
H14A H 0.662831 0.400768 0.182180 0.059 Uiso 1 1 calc R U . . .
C15 C 0.6339(2) 0.1839(2) 0.26944(16) 0.0420(5) Uani 1 1 d . . . . .
C16 C 0.6374(3) 0.1089(2) 0.37601(16) 0.0458(5) Uani 1 1 d . . . . .
H16A H 0.616203 0.002051 0.392081 0.055 Uiso 1 1 calc R U . . .
C17 C 0.6714(2) 0.1901(2) 0.45676(16) 0.0423(5) Uani 1 1 d . . . . .
H17A H 0.671784 0.136495 0.526214 0.051 Uiso 1 1 calc R U . . .
N2 N 0.6008(2) 0.1037(2) 0.18793(14) 0.0577(5) Uani 1 1 d . . . . .
C18 C 0.6048(3) 0.1818(3) 0.07673(17) 0.0597(6) Uani 1 1 d . . . . .
H18A H 0.578757 0.107961 0.031318 0.072 Uiso 1 1 calc R U . . .
H18B H 0.519279 0.270962 0.082510 0.072 Uiso 1 1 calc R U . . .
H18C H 0.718941 0.217940 0.043162 0.072 Uiso 1 1 calc R U . . .
C19 C 0.5701(3) -0.0629(3) 0.20802(18) 0.0666(7) Uani 1 1 d . . . . .
H19A H 0.549451 -0.098782 0.142367 0.080 Uiso 1 1 calc R U . . .
H19B H 0.670612 -0.122425 0.225532 0.080 Uiso 1 1 calc R U . . .
H19C H 0.469701 -0.078165 0.269539 0.080 Uiso 1 1 calc R U . . .

loop_
_atom_site_aniso_label
_atom_site_aniso_U_11
_atom_site_aniso_U_22
_atom_site_aniso_U_33
_atom_site_aniso_U_23
_atom_site_aniso_U_13
_atom_site_aniso_U_12
O1 0.0874(11) 0.0310(7) 0.0456(8) 0.0060(6) -0.0245(8) -0.0166(7)
B1 0.0551(14) 0.0294(10) 0.0419(12) 0.0042(9) -0.0123(11) -0.0077(9)
F1 0.0792(9) 0.0523(7) 0.0501(7) 0.0036(6) -0.0045(6) -0.0307(6)
F2 0.0799(9) 0.0349(6) 0.0744(9) 0.0018(6) -0.0340(7) 0.0040(6)
N1 0.0378(8) 0.0278(7) 0.0416(9) 0.0007(6) -0.0091(7) -0.0036(6)
C1 0.0375(10) 0.0308(9) 0.0439(11) -0.0019(8) -0.0085(8) -0.0023(7)
C2 0.0604(13) 0.0346(10) 0.0510(12) 0.0020(9) -0.0180(10) -0.0066(9)
C3 0.0629(14) 0.0517(12) 0.0434(11) 0.0001(10) -0.0159(10) -0.0064(10)
C4 0.0596(14) 0.0487(12) 0.0570(13) -0.0128(10) -0.0181(11) -0.0088(10)
C5 0.0541(12) 0.0386(10) 0.0587(13) -0.0074(10) -0.0127(10) -0.0089(9)
C6 0.0380(10) 0.0317(9) 0.0493(11) -0.0025(8) -0.0077(9) -0.0049(7)
C7 0.0481(12) 0.0280(9) 0.0556(12) 0.0009(9) -0.0066(10) -0.0088(8)
C8 0.0496(12) 0.0310(9) 0.0436(11) 0.0070(8) -0.0055(9) -0.0059(8)
C9 0.0351(10) 0.0295(9) 0.0410(10) 0.0028(8) -0.0060(8) -0.0030(7)
C10 0.0481(11) 0.0328(9) 0.0393(10) 0.0055(8) -0.0113(9) -0.0048(8)
C11 0.0374(10) 0.0333(9) 0.0418(10) 0.0016(8) -0.0077(8) -0.0023(7)
C12 0.0387(10) 0.0347(10) 0.0418(10) 0.0000(8) -0.0079(8) -0.0044(8)
C13 0.0632(14) 0.0364(10) 0.0472(12) 0.0048(9) -0.0142(10) -0.0104(9)
C14 0.0574(13) 0.0499(12) 0.0403(11) 0.0066(9) -0.0127(10) -0.0102(10)
C15 0.0382(10) 0.0481(11) 0.0401(11) -0.0022(9) -0.0084(9) -0.0102(8)
C16 0.0511(12) 0.0389(10) 0.0483(12) 0.0010(9) -0.0121(10) -0.0139(9)
C17 0.0505(12) 0.0379(10) 0.0383(10) 0.0034(8) -0.0119(9) -0.0085(8)
N2 0.0722(13) 0.0621(11) 0.0440(10) -0.0019(8) -0.0163(9) -0.0284(9)
C18 0.0664(15) 0.0733(15) 0.0429(12) -0.0049(11) -0.0178(11) -0.0111(12)
C19 0.0840(18) 0.0680(15) 0.0484(13) -0.0146(11) -0.0048(12) -0.0286(13)

_geom_special_details            
;
 All esds (except the esd in the dihedral angle between two l.s. planes)
 are estimated using the full covariance matrix.  The cell esds are taken
 into account individually in the estimation of esds in distances, angles
 and torsion angles; correlations between esds in cell parameters are only
 used when they are defined by crystal symmetry.  An approximate (isotropic)
 treatment of cell esds is used for estimating esds involving l.s. planes.
;

loop_
_geom_bond_atom_site_label_1
_geom_bond_atom_site_label_2
_geom_bond_distance
_geom_bond_site_symmetry_2
_geom_bond_publ_flag
O1 C11 1.332(2) . ?
O1 B1 1.457(3) . ?
B1 F1 1.379(3) . ?
B1 F2 1.394(2) . ?
B1 N1 1.598(2) . ?
N1 C9 1.357(2) . ?
N1 C1 1.406(2) . ?
C1 C2 1.405(2) . ?
C1 C6 1.418(2) . ?
C2 C3 1.371(3) . ?
C2 H2A 0.9300 . ?
C3 C4 1.398(3) . ?
C3 H3A 0.9300 . ?
C4 C5 1.366(3) . ?
C4 H4A 0.9300 . ?
C5 C6 1.411(3) . ?
C5 H5A 0.9300 . ?
C6 C7 1.420(3) . ?
C7 C8 1.347(3) . ?
C7 H7A 0.9300 . ?
C8 C9 1.433(2) . ?
C8 H8A 0.9300 . ?
C9 C10 1.409(2) . ?
C10 C11 1.362(2) . ?
C10 H10A 0.9300 . ?
C11 C12 1.465(3) . ?
C12 C17 1.397(2) . ?
C12 C13 1.400(3) . ?
C13 C14 1.374(3) . ?
C13 H13A 0.9300 . ?
C14 C15 1.408(3) . ?
C14 H14A 0.9300 . ?
C15 N2 1.374(2) . ?
C15 C16 1.409(3) . ?
C16 C17 1.375(3) . ?
C16 H16A 0.9300 . ?
C17 H17A 0.9300 . ?
N2 C19 1.443(3) . ?
N2 C18 1.458(2) . ?
C18 H18A 0.9600 . ?
C18 H18B 0.9600 . ?
C18 H18C 0.9600 . ?
C19 H19A 0.9600 . ?
C19 H19B 0.9600 . ?
C19 H19C 0.9600 . ?

loop_
_geom_angle_atom_site_label_1
_geom_angle_atom_site_label_2
_geom_angle_atom_site_label_3
_geom_angle
_geom_angle_site_symmetry_1
_geom_angle_site_symmetry_3
_geom_angle_publ_flag
C11 O1 B1 126.27(14) . . ?
F1 B1 F2 110.25(17) . . ?
F1 B1 O1 108.74(17) . . ?
F2 B1 O1 108.78(17) . . ?
F1 B1 N1 109.47(16) . . ?
F2 B1 N1 108.49(16) . . ?
O1 B1 N1 111.11(15) . . ?
C9 N1 C1 120.56(14) . . ?
C9 N1 B1 118.80(15) . . ?
C1 N1 B1 120.63(14) . . ?
C2 C1 N1 121.83(15) . . ?
C2 C1 C6 118.45(17) . . ?
N1 C1 C6 119.72(16) . . ?
C3 C2 C1 120.49(17) . . ?
C3 C2 H2A 119.8 . . ?
C1 C2 H2A 119.8 . . ?
C2 C3 C4 121.40(19) . . ?
C2 C3 H3A 119.3 . . ?
C4 C3 H3A 119.3 . . ?
C5 C4 C3 119.16(19) . . ?
C5 C4 H4A 120.4 . . ?
C3 C4 H4A 120.4 . . ?
C4 C5 C6 121.16(18) . . ?
C4 C5 H5A 119.4 . . ?
C6 C5 H5A 119.4 . . ?
C5 C6 C1 119.33(17) . . ?
C5 C6 C7 121.83(16) . . ?
C1 C6 C7 118.83(17) . . ?
C8 C7 C6 120.11(16) . . ?
C8 C7 H7A 119.9 . . ?
C6 C7 H7A 119.9 . . ?
C7 C8 C9 121.13(17) . . ?
C7 C8 H8A 119.4 . . ?
C9 C8 H8A 119.4 . . ?
N1 C9 C10 121.31(15) . . ?
N1 C9 C8 119.65(16) . . ?
C10 C9 C8 119.04(16) . . ?
C11 C10 C9 122.82(17) . . ?
C11 C10 H10A 118.6 . . ?
C9 C10 H10A 118.6 . . ?
O1 C11 C10 119.57(17) . . ?
O1 C11 C12 115.78(15) . . ?
C10 C11 C12 124.65(16) . . ?
C17 C12 C13 116.33(17) . . ?
C17 C12 C11 120.66(16) . . ?
C13 C12 C11 123.01(16) . . ?
C14 C13 C12 122.24(18) . . ?
C14 C13 H13A 118.9 . . ?
C12 C13 H13A 118.9 . . ?
C13 C14 C15 121.42(18) . . ?
C13 C14 H14A 119.3 . . ?
C15 C14 H14A 119.3 . . ?
N2 C15 C14 121.65(17) . . ?
N2 C15 C16 122.03(17) . . ?
C14 C15 C16 116.32(17) . . ?
C17 C16 C15 121.55(17) . . ?
C17 C16 H16A 119.2 . . ?
C15 C16 H16A 119.2 . . ?
C16 C17 C12 122.12(17) . . ?
C16 C17 H17A 118.9 . . ?
C12 C17 H17A 118.9 . . ?
C15 N2 C19 120.91(17) . . ?
C15 N2 C18 121.15(17) . . ?
C19 N2 C18 117.86(17) . . ?
N2 C18 H18A 109.5 . . ?
N2 C18 H18B 109.5 . . ?
H18A C18 H18B 109.5 . . ?
N2 C18 H18C 109.5 . . ?
H18A C18 H18C 109.5 . . ?
H18B C18 H18C 109.5 . . ?
N2 C19 H19A 109.5 . . ?
N2 C19 H19B 109.5 . . ?
H19A C19 H19B 109.5 . . ?
N2 C19 H19C 109.5 . . ?
H19A C19 H19C 109.5 . . ?
H19B C19 H19C 109.5 . . ?

loop_
_geom_torsion_atom_site_label_1
_geom_torsion_atom_site_label_2
_geom_torsion_atom_site_label_3
_geom_torsion_atom_site_label_4
_geom_torsion
_geom_torsion_site_symmetry_1
_geom_torsion_site_symmetry_2
_geom_torsion_site_symmetry_3
_geom_torsion_site_symmetry_4
_geom_torsion_publ_flag
C11 O1 B1 F1 123.19(19) . . . . ?
C11 O1 B1 F2 -116.72(19) . . . . ?
C11 O1 B1 N1 2.6(3) . . . . ?
F1 B1 N1 C9 -123.99(17) . . . . ?
F2 B1 N1 C9 115.66(18) . . . . ?
O1 B1 N1 C9 -3.9(2) . . . . ?
F1 B1 N1 C1 57.1(2) . . . . ?
F2 B1 N1 C1 -63.3(2) . . . . ?
O1 B1 N1 C1 177.19(15) . . . . ?
C9 N1 C1 C2 178.77(16) . . . . ?
B1 N1 C1 C2 -2.3(3) . . . . ?
C9 N1 C1 C6 -0.5(3) . . . . ?
B1 N1 C1 C6 178.46(16) . . . . ?
N1 C1 C2 C3 -178.78(18) . . . . ?
C6 C1 C2 C3 0.5(3) . . . . ?
C1 C2 C3 C4 -0.9(3) . . . . ?
C2 C3 C4 C5 0.9(3) . . . . ?
C3 C4 C5 C6 -0.5(3) . . . . ?
C4 C5 C6 C1 0.1(3) . . . . ?
C4 C5 C6 C7 179.50(18) . . . . ?
C2 C1 C6 C5 -0.1(3) . . . . ?
N1 C1 C6 C5 179.15(16) . . . . ?
C2 C1 C6 C7 -179.47(16) . . . . ?
N1 C1 C6 C7 -0.2(3) . . . . ?
C5 C6 C7 C8 -179.17(18) . . . . ?
C1 C6 C7 C8 0.2(3) . . . . ?
C6 C7 C8 C9 0.5(3) . . . . ?
C1 N1 C9 C10 -178.46(16) . . . . ?
B1 N1 C9 C10 2.6(3) . . . . ?
C1 N1 C9 C8 1.1(3) . . . . ?
B1 N1 C9 C8 -177.80(16) . . . . ?
C7 C8 C9 N1 -1.2(3) . . . . ?
C7 C8 C9 C10 178.42(17) . . . . ?
N1 C9 C10 C11 0.4(3) . . . . ?
C8 C9 C10 C11 -179.21(17) . . . . ?
B1 O1 C11 C10 0.1(3) . . . . ?
B1 O1 C11 C12 179.45(17) . . . . ?
C9 C10 C11 O1 -1.9(3) . . . . ?
C9 C10 C11 C12 178.79(16) . . . . ?
O1 C11 C12 C17 -0.3(3) . . . . ?
C10 C11 C12 C17 179.01(17) . . . . ?
O1 C11 C12 C13 179.51(17) . . . . ?
C10 C11 C12 C13 -1.2(3) . . . . ?
C17 C12 C13 C14 -0.8(3) . . . . ?
C11 C12 C13 C14 179.40(18) . . . . ?
C12 C13 C14 C15 -0.2(3) . . . . ?
C13 C14 C15 N2 -179.41(19) . . . . ?
C13 C14 C15 C16 0.9(3) . . . . ?
N2 C15 C16 C17 179.70(18) . . . . ?
C14 C15 C16 C17 -0.6(3) . . . . ?
C15 C16 C17 C12 -0.4(3) . . . . ?
C13 C12 C17 C16 1.0(3) . . . . ?
C11 C12 C17 C16 -179.11(17) . . . . ?
C14 C15 N2 C19 179.5(2) . . . . ?
C16 C15 N2 C19 -0.7(3) . . . . ?
C14 C15 N2 C18 2.8(3) . . . . ?
C16 C15 N2 C18 -177.50(19) . . . . ?

loop_
_geom_hbond_atom_site_label_D
_geom_hbond_atom_site_label_H
_geom_hbond_atom_site_label_A
_geom_hbond_distance_DH
_geom_hbond_distance_HA
_geom_hbond_distance_DA
_geom_hbond_angle_DHA
_geom_hbond_site_symmetry_A
_geom_hbond_publ_flag
C2 H2A F1 0.93 2.38 2.943(2) 118.7 . yes
C2 H2A F2 0.93 2.56 3.068(2) 115.1 . yes

_refine_diff_density_max         0.169
_refine_diff_density_min         -0.227
_refine_diff_density_rms         0.041

_shelx_res_file                  
;
TITL e1445a_a.res in P-1
    e1445a_a.res
    created by SHELXL-2017/1 at 20:14:12 on 06-Jun-2019
REM Old TITL e1445a in P-1

REM SHELXT solution in P-1
REM R1 0.307,  Rweak 0.009,  Alpha 0.078,  Orientation as input
REM Formula found by SHELXT:  C19 B N2 O F2

CELL  0.71073   7.9326   8.4946  12.4339   83.493   75.117   84.165
ZERR    2.000   0.0010   0.0009   0.0014    0.009    0.010    0.010
LATT  1
SFAC C H B N O F
UNIT 38.00 34.00 2.00 4.00 2.00 4.00

SIZE  0.703 0.358 0.208
TEMP  20

L.S. 15
BOND $H
LIST 6
FMAP 2
PLAN 5

OMIT  -3
OMIT   0  -1   1

ACTA
CONF
HTAB
HTAB C2 F1
HTAB C2 F2

WGHT    0.061500    0.063600
EXTI    0.050517
FVAR       0.83409
O1    5    0.742419    0.345171    0.621388    11.00000    0.08745    0.03103 =
         0.04560    0.00603   -0.02448   -0.01656
B1    3    0.777664    0.398652    0.720242    11.00000    0.05513    0.02945 =
         0.04186    0.00417   -0.01226   -0.00768
F1    6    0.635999    0.372610    0.809677    11.00000    0.07920    0.05226 =
         0.05008    0.00358   -0.00447   -0.03071
F2    6    0.927287    0.312922    0.740779    11.00000    0.07994    0.03493 =
         0.07437    0.00184   -0.03403    0.00403
N1    4    0.810739    0.583296    0.702089    11.00000    0.03785    0.02777 =
         0.04158    0.00072   -0.00909   -0.00361
C1    1    0.839647    0.661320    0.788895    11.00000    0.03751    0.03075 =
         0.04392   -0.00188   -0.00846   -0.00231
C2    1    0.834508    0.582749    0.895267    11.00000    0.06040    0.03464 =
         0.05099    0.00204   -0.01799   -0.00656
AFIX  43
H2A   2    0.813650    0.475665    0.909067    11.00000   -1.20000
AFIX   0
C3    1    0.860022    0.662791    0.978892    11.00000    0.06287    0.05173 =
         0.04336    0.00012   -0.01590   -0.00641
AFIX  43
H3A   2    0.854601    0.609212    1.049060    11.00000   -1.20000
AFIX   0
C4    1    0.894018    0.823265    0.960896    11.00000    0.05957    0.04873 =
         0.05704   -0.01282   -0.01806   -0.00876
AFIX  43
H4A   2    0.912642    0.875583    1.018135    11.00000   -1.20000
AFIX   0
C5    1    0.899521    0.902197    0.858172    11.00000    0.05406    0.03860 =
         0.05868   -0.00735   -0.01273   -0.00895
AFIX  43
H5A   2    0.921132    1.009151    0.846047    11.00000   -1.20000
AFIX   0
C6    1    0.872997    0.824319    0.770152    11.00000    0.03802    0.03174 =
         0.04933   -0.00246   -0.00773   -0.00489
C7    1    0.876947    0.905013    0.663182    11.00000    0.04810    0.02796 =
         0.05557    0.00094   -0.00661   -0.00880
AFIX  43
H7A   2    0.898955    1.011840    0.649410    11.00000   -1.20000
AFIX   0
C8    1    0.848877    0.827106    0.581645    11.00000    0.04956    0.03096 =
         0.04357    0.00703   -0.00554   -0.00586
AFIX  43
H8A   2    0.852670    0.880816    0.511697    11.00000   -1.20000
AFIX   0
C9    1    0.813273    0.662899    0.600808    11.00000    0.03509    0.02947 =
         0.04099    0.00284   -0.00604   -0.00302
C10   1    0.780418    0.587579    0.513747    11.00000    0.04811    0.03283 =
         0.03931    0.00552   -0.01133   -0.00483
AFIX  43
H10A  2    0.784121    0.646244    0.445434    11.00000   -1.20000
AFIX   0
C11   1    0.743476    0.432575    0.525330    11.00000    0.03736    0.03326 =
         0.04181    0.00165   -0.00773   -0.00228
C12   1    0.705272    0.350409    0.437862    11.00000    0.03872    0.03469 =
         0.04183    0.00002   -0.00793   -0.00443
C13   1    0.699922    0.425335    0.332404    11.00000    0.06320    0.03638 =
         0.04715    0.00481   -0.01421   -0.01038
AFIX  43
H13A  2    0.720426    0.532398    0.316949    11.00000   -1.20000
AFIX   0
C14   1    0.665417    0.346097    0.250978    11.00000    0.05738    0.04992 =
         0.04035    0.00660   -0.01266   -0.01017
AFIX  43
H14A  2    0.662831    0.400768    0.182180    11.00000   -1.20000
AFIX   0
C15   1    0.633881    0.183878    0.269438    11.00000    0.03822    0.04805 =
         0.04015   -0.00221   -0.00838   -0.01020
C16   1    0.637379    0.108919    0.376012    11.00000    0.05113    0.03891 =
         0.04830    0.00099   -0.01209   -0.01389
AFIX  43
H16A  2    0.616203    0.002051    0.392081    11.00000   -1.20000
AFIX   0
C17   1    0.671355    0.190052    0.456761    11.00000    0.05049    0.03788 =
         0.03834    0.00338   -0.01187   -0.00853
AFIX  43
H17A  2    0.671784    0.136495    0.526214    11.00000   -1.20000
AFIX   0
N2    4    0.600847    0.103708    0.187932    11.00000    0.07219    0.06212 =
         0.04404   -0.00191   -0.01625   -0.02839
C18   1    0.604793    0.181816    0.076729    11.00000    0.06637    0.07332 =
         0.04287   -0.00486   -0.01778   -0.01114
AFIX  33
H18A  2    0.578757    0.107961    0.031318    11.00000   -1.20000
H18B  2    0.519279    0.270962    0.082510    11.00000   -1.20000
H18C  2    0.718941    0.217940    0.043162    11.00000   -1.20000
AFIX   0
C19   1    0.570078   -0.062857    0.208024    11.00000    0.08397    0.06804 =
         0.04838   -0.01459   -0.00484   -0.02865
AFIX  33
H19A  2    0.549451   -0.098782    0.142367    11.00000   -1.20000
H19B  2    0.670612   -0.122425    0.225532    11.00000   -1.20000
H19C  2    0.469701   -0.078165    0.269539    11.00000   -1.20000

AFIX   0
HKLF 4




REM  e1445a_a.res in P-1
REM R1 =  0.0551 for    2256 Fo > 4sig(Fo)  and  0.0886 for all    3516 data
REM    227 parameters refined using      0 restraints

END

WGHT      0.0617      0.0635

REM Instructions for potential hydrogen bonds
HTAB C2 F1
HTAB C2 F2

REM Highest difference peak  0.169,  deepest hole -0.227,  1-sigma level  0.041
Q1    1   0.6476 -0.1588  0.1507  11.00000  0.05    0.17
Q2    1   0.6920  0.1239  0.2165  11.00000  0.05    0.17
Q3    1   0.8404  0.7468  0.7759  11.00000  0.05    0.16
Q4    1   0.5697 -0.1368  0.2842  11.00000  0.05    0.16
Q5    1   0.7274  0.2705  0.4412  11.00000  0.05    0.16
;
_shelx_res_checksum              44974

_exptl_crystal_recrystallization_method 'Re-crystallisation from solvent'
####################################################################### 
# 
# This file contains crystal structure data downloaded from the 
# Cambridge Structural Database (CSD) hosted by the Cambridge 
# Crystallographic Data Centre (CCDC).
# 
# Full information about CCDC data access policies and citation 
# guidelines are available at http://www.ccdc.cam.ac.uk/access/V1 
# 
# Audit and citation data items may have been added by the CCDC. 
# Please retain this information to preserve the provenance of 
# this file and to allow appropriate attribution of the data. 
# 
#######################################################################

data_e1446a
_database_code_depnum_ccdc_archive 'CCDC 2090003'
loop_
_audit_author_name
_audit_author_address
'Andrzej Wojtczak'
;Nicolaus Copernicus University
Poland
;
_audit_update_record             
;
2021-06-15 deposited with the CCDC.	2021-09-28 downloaded from the CCDC.
;

_audit_creation_method           SHELXL-2017/1
_shelx_SHELXL_version_number     2017/1
_chemical_name_systematic        ?
_chemical_name_common            ?
_chemical_melting_point          ?
_chemical_formula_moiety         'C23 H19 B F2 N2 O'
_chemical_formula_sum            'C23 H19 B F2 N2 O'
_chemical_formula_weight         388.21

loop_
_atom_type_symbol
_atom_type_description
_atom_type_scat_dispersion_real
_atom_type_scat_dispersion_imag
_atom_type_scat_source
C C 0.0033 0.0016 'International Tables Vol C Tables 4.2.6.8 and 6.1.1.4'
H H 0.0000 0.0000 'International Tables Vol C Tables 4.2.6.8 and 6.1.1.4'
B B 0.0013 0.0007 'International Tables Vol C Tables 4.2.6.8 and 6.1.1.4'
N N 0.0061 0.0033 'International Tables Vol C Tables 4.2.6.8 and 6.1.1.4'
O O 0.0106 0.0060 'International Tables Vol C Tables 4.2.6.8 and 6.1.1.4'
F F 0.0171 0.0103 'International Tables Vol C Tables 4.2.6.8 and 6.1.1.4'

_space_group_crystal_system      orthorhombic
_space_group_IT_number           61
_space_group_name_H-M_alt        'P b c a'
_space_group_name_Hall           '-P 2ac 2ab'

_shelx_space_group_comment       
;
The symmetry employed for this shelxl refinement is uniquely defined
by the following loop, which should always be used as a source of
symmetry information in preference to the above space-group names.
They are only intended as comments.
;

loop_
_space_group_symop_operation_xyz
'x, y, z'
'-x+1/2, -y, z+1/2'
'-x, y+1/2, -z+1/2'
'x+1/2, -y+1/2, -z'
'-x, -y, -z'
'x-1/2, y, -z-1/2'
'x, -y-1/2, z-1/2'
'-x-1/2, y-1/2, z'

_cell_length_a                   7.4012(9)
_cell_length_b                   18.135(2)
_cell_length_c                   27.312(3)
_cell_angle_alpha                90
_cell_angle_beta                 90
_cell_angle_gamma                90
_cell_volume                     3665.7(7)
_cell_formula_units_Z            8
_cell_measurement_temperature    293(2)
_cell_measurement_reflns_used    2155
_cell_measurement_theta_min      2.2860
_cell_measurement_theta_max      26.5930

_exptl_crystal_description       needle
_exptl_crystal_colour            red
_exptl_crystal_density_meas      ?
_exptl_crystal_density_method    ?
_exptl_crystal_density_diffrn    1.407
_exptl_crystal_F_000             1616
_exptl_transmission_factor_min   ?
_exptl_transmission_factor_max   ?
_exptl_crystal_size_max          0.529
_exptl_crystal_size_mid          0.141
_exptl_crystal_size_min          0.103
_exptl_absorpt_coefficient_mu    0.100
_shelx_estimated_absorpt_T_min   0.949
_shelx_estimated_absorpt_T_max   0.990
_exptl_absorpt_correction_type   analytical
_exptl_absorpt_correction_T_min  0.976
_exptl_absorpt_correction_T_max  0.991
_exptl_absorpt_process_details   'CrysAlisPro 1.171.38.43 (Rigaku OD, 2015)'
_exptl_absorpt_special_details   
;
CrysAlisPro 1.171.38.43 (Rigaku Oxford Diffraction, 2015)
Analytical numeric absorption correction using a multifaceted crystal
model based on expressions derived by R.C. Clark & J.S. Reid.
(Clark, R. C. & Reid, J. S. (1995). Acta Cryst. A51, 887-897)
Empirical absorption correction using spherical harmonics,
 implemented in SCALE3 ABSPACK scaling algorithm.
;
_diffrn_ambient_temperature      293(2)
_diffrn_radiation_wavelength     0.71073
_diffrn_radiation_type           MoK\a
_diffrn_source                   'fine-focus sealed tube'
_diffrn_measurement_device_type  'Oxford Sapphire CCD'
_diffrn_measurement_method       \q/2\q
_diffrn_detector_area_resol_mean 8.2564
_diffrn_reflns_number            11559
_diffrn_reflns_av_unetI/netI     0.0993
_diffrn_reflns_av_R_equivalents  0.0866
_diffrn_reflns_limit_h_min       -9
_diffrn_reflns_limit_h_max       7
_diffrn_reflns_limit_k_min       -24
_diffrn_reflns_limit_k_max       10
_diffrn_reflns_limit_l_min       -29
_diffrn_reflns_limit_l_max       35
_diffrn_reflns_theta_min         2.367
_diffrn_reflns_theta_max         28.626
_diffrn_reflns_theta_full        25.242
_diffrn_measured_fraction_theta_max 0.897
_diffrn_measured_fraction_theta_full 0.999
_diffrn_reflns_Laue_measured_fraction_max 0.897
_diffrn_reflns_Laue_measured_fraction_full 0.999
_diffrn_reflns_point_group_measured_fraction_max 0.897
_diffrn_reflns_point_group_measured_fraction_full 0.999
_reflns_number_total             4213
_reflns_number_gt                1934
_reflns_threshold_expression     'I > 2\s(I)'
_reflns_Friedel_coverage         0.000
_reflns_Friedel_fraction_max     .
_reflns_Friedel_fraction_full    .

_reflns_special_details          
;
 Reflections were merged by SHELXL according to the crystal
 class for the calculation of statistics and refinement.
 
 _reflns_Friedel_fraction is defined as the number of unique
 Friedel pairs measured divided by the number that would be
 possible theoretically, ignoring centric projections and
 systematic absences.
;

_computing_data_collection       'CrysAlisPro 1.171.38.43 (Rigaku OD, 2015)'
_computing_cell_refinement       'CrysAlisPro 1.171.38.43 (Rigaku OD, 2015)'
_computing_data_reduction        'CrysAlisPro 1.171.38.43 (Rigaku OD, 2015)'
_computing_structure_solution    'SHELXS-2017/1 (Sheldrick, 2017)'
_computing_structure_refinement  'SHELXL-2017/1 (Sheldrick, 2017)'
_computing_molecular_graphics    ?
_computing_publication_material  'CIFTAB-2017 (Sheldrick, 2017)'
_refine_special_details          ?
_refine_ls_structure_factor_coef Fsqd
_refine_ls_matrix_type           full
_refine_ls_weighting_scheme      calc
_refine_ls_weighting_details     
'w=1/[\s^2^(Fo^2^)+(0.0596P)^2^] where P=(Fo^2^+2Fc^2^)/3'
_atom_sites_solution_primary     direct
_atom_sites_solution_secondary   difmap
_atom_sites_solution_hydrogens   difmap
_refine_ls_hydrogen_treatment    constr
_refine_ls_extinction_method     none
_refine_ls_extinction_coef       .
_refine_ls_number_reflns         4213
_refine_ls_number_parameters     262
_refine_ls_number_restraints     0
_refine_ls_R_factor_all          0.1564
_refine_ls_R_factor_gt           0.0632
_refine_ls_wR_factor_ref         0.1783
_refine_ls_wR_factor_gt          0.1327
_refine_ls_goodness_of_fit_ref   0.966
_refine_ls_restrained_S_all      0.966
_refine_ls_shift/su_max          0.000
_refine_ls_shift/su_mean         0.000

loop_
_atom_site_label
_atom_site_type_symbol
_atom_site_fract_x
_atom_site_fract_y
_atom_site_fract_z
_atom_site_U_iso_or_equiv
_atom_site_adp_type
_atom_site_occupancy
_atom_site_site_symmetry_order
_atom_site_calc_flag
_atom_site_refinement_flags_posn
_atom_site_refinement_flags_adp
_atom_site_refinement_flags_occupancy
_atom_site_disorder_assembly
_atom_site_disorder_group
O1 O 0.5148(3) -0.00248(11) 0.09718(8) 0.0653(7) Uani 1 1 d . . . . .
B1 B 0.5695(5) 0.06557(18) 0.12035(13) 0.0449(9) Uani 1 1 d . . . . .
F1 F 0.4416(2) 0.11881(9) 0.11001(7) 0.0580(5) Uani 1 1 d . . . . .
F2 F 0.7349(2) 0.08560(10) 0.10045(6) 0.0617(6) Uani 1 1 d . . . . .
N1 N 0.5857(3) 0.05731(11) 0.17787(8) 0.0364(6) Uani 1 1 d . . . . .
C1 C 0.6411(4) 0.11857(14) 0.20606(11) 0.0367(7) Uani 1 1 d . . . . .
C2 C 0.6929(4) 0.18474(14) 0.18241(12) 0.0486(8) Uani 1 1 d . . . . .
H2A H 0.690435 0.188109 0.148440 0.058 Uiso 1 1 calc R U . . .
C3 C 0.7470(4) 0.24409(15) 0.21028(14) 0.0524(9) Uani 1 1 d . . . . .
H3A H 0.778507 0.287916 0.194800 0.063 Uiso 1 1 calc R U . . .
C4 C 0.7553(4) 0.23992(16) 0.26053(13) 0.0512(9) Uani 1 1 d . . . . .
H4A H 0.794388 0.280257 0.278696 0.061 Uiso 1 1 calc R U . . .
C5 C 0.7058(4) 0.17631(14) 0.28356(12) 0.0447(8) Uani 1 1 d . . . . .
H5A H 0.711429 0.173921 0.317540 0.054 Uiso 1 1 calc R U . . .
C6 C 0.6470(4) 0.11464(14) 0.25735(11) 0.0354(7) Uani 1 1 d . . . . .
C7 C 0.5924(3) 0.04675(14) 0.28112(10) 0.0329(6) Uani 1 1 d . . . . .
C8 C 0.5854(4) 0.03973(15) 0.33273(11) 0.0422(7) Uani 1 1 d . . . . .
H8A H 0.613936 0.080093 0.352262 0.051 Uiso 1 1 calc R U . . .
C9 C 0.5377(4) -0.02521(16) 0.35422(11) 0.0474(8) Uani 1 1 d . . . . .
H9A H 0.534517 -0.029052 0.388168 0.057 Uiso 1 1 calc R U . . .
C10 C 0.4939(4) -0.08545(16) 0.32546(11) 0.0469(8) Uani 1 1 d . . . . .
H10A H 0.463343 -0.129940 0.340234 0.056 Uiso 1 1 calc R U . . .
C11 C 0.4950(4) -0.08019(15) 0.27584(11) 0.0410(7) Uani 1 1 d . . . . .
H11A H 0.462970 -0.120898 0.257035 0.049 Uiso 1 1 calc R U . . .
C12 C 0.5438(3) -0.01432(14) 0.25265(11) 0.0332(6) Uani 1 1 d . . . . .
C13 C 0.5428(3) -0.00734(14) 0.19918(11) 0.0333(7) Uani 1 1 d . . . . .
C14 C 0.4964(4) -0.06805(15) 0.16972(10) 0.0382(7) Uani 1 1 d . . . . .
H14A H 0.471526 -0.112645 0.185125 0.046 Uiso 1 1 calc R U . . .
C15 C 0.4857(4) -0.06544(15) 0.12011(11) 0.0397(7) Uani 1 1 d . . . . .
C16 C 0.4490(4) -0.12798(15) 0.08867(10) 0.0401(7) Uani 1 1 d . . . . .
C17 C 0.4397(4) -0.12078(18) 0.03772(11) 0.0519(8) Uani 1 1 d . . . . .
H17A H 0.444778 -0.073842 0.024065 0.062 Uiso 1 1 calc R U . . .
C18 C 0.4233(5) -0.18036(17) 0.00726(11) 0.0535(9) Uani 1 1 d . . . . .
H18A H 0.418639 -0.172894 -0.026407 0.064 Uiso 1 1 calc R U . . .
C19 C 0.4135(4) -0.25203(17) 0.02562(11) 0.0444(8) Uani 1 1 d . . . . .
C20 C 0.4149(4) -0.25968(16) 0.07682(12) 0.0534(9) Uani 1 1 d . . . . .
H20A H 0.404997 -0.306408 0.090594 0.064 Uiso 1 1 calc R U . . .
C21 C 0.4306(4) -0.19948(15) 0.10675(10) 0.0471(8) Uani 1 1 d . . . . .
H21A H 0.428995 -0.206557 0.140470 0.057 Uiso 1 1 calc R U . . .
N2 N 0.4060(4) -0.31201(15) -0.00438(9) 0.0558(7) Uani 1 1 d . . . . .
C22 C 0.4139(5) -0.3047(2) -0.05690(11) 0.0692(11) Uani 1 1 d . . . . .
H22A H 0.406819 -0.352627 -0.071698 0.083 Uiso 1 1 calc R U . . .
H22B H 0.314485 -0.275032 -0.067945 0.083 Uiso 1 1 calc R U . . .
H22C H 0.525577 -0.281556 -0.066031 0.083 Uiso 1 1 calc R U . . .
C23 C 0.4056(6) -0.38653(18) 0.01539(13) 0.0740(11) Uani 1 1 d . . . . .
H23A H 0.399938 -0.421412 -0.011002 0.089 Uiso 1 1 calc R U . . .
H23B H 0.514157 -0.394490 0.033910 0.089 Uiso 1 1 calc R U . . .
H23C H 0.302567 -0.392853 0.036314 0.089 Uiso 1 1 calc R U . . .

loop_
_atom_site_aniso_label
_atom_site_aniso_U_11
_atom_site_aniso_U_22
_atom_site_aniso_U_33
_atom_site_aniso_U_23
_atom_site_aniso_U_13
_atom_site_aniso_U_12
O1 0.112(2) 0.0452(12) 0.0381(13) 0.0090(11) -0.0050(13) -0.0116(13)
B1 0.057(2) 0.0385(18) 0.040(2) 0.0125(17) 0.0037(18) -0.0010(18)
F1 0.0618(11) 0.0582(11) 0.0540(12) 0.0171(9) -0.0070(9) 0.0105(9)
F2 0.0590(12) 0.0769(13) 0.0492(12) 0.0163(10) 0.0147(10) -0.0023(10)
N1 0.0402(13) 0.0329(12) 0.0360(14) 0.0042(11) 0.0016(11) 0.0033(11)
C1 0.0304(14) 0.0307(14) 0.0490(19) 0.0044(14) -0.0002(14) 0.0022(12)
C2 0.0497(18) 0.0380(16) 0.058(2) 0.0127(16) 0.0044(16) -0.0003(15)
C3 0.0479(18) 0.0281(15) 0.081(3) 0.0088(17) 0.0029(18) -0.0033(14)
C4 0.0456(18) 0.0359(16) 0.072(3) -0.0022(17) 0.0008(17) -0.0039(14)
C5 0.0484(17) 0.0332(15) 0.052(2) -0.0026(15) 0.0025(15) 0.0041(14)
C6 0.0305(15) 0.0312(14) 0.0444(19) 0.0002(14) 0.0005(13) 0.0067(12)
C7 0.0295(14) 0.0316(13) 0.0377(17) 0.0021(13) 0.0008(12) 0.0058(12)
C8 0.0513(18) 0.0375(15) 0.0378(18) -0.0059(14) -0.0007(15) 0.0041(14)
C9 0.061(2) 0.0496(18) 0.0317(18) 0.0057(15) 0.0012(15) 0.0027(16)
C10 0.0602(19) 0.0403(16) 0.0401(19) 0.0098(15) 0.0018(16) -0.0030(15)
C11 0.0502(18) 0.0337(15) 0.0391(19) 0.0024(14) -0.0026(15) -0.0009(14)
C12 0.0322(15) 0.0320(14) 0.0354(16) 0.0000(13) -0.0013(12) 0.0056(12)
C13 0.0290(14) 0.0316(14) 0.0393(17) 0.0070(13) 0.0000(13) 0.0025(12)
C14 0.0447(16) 0.0338(15) 0.0360(18) 0.0064(13) 0.0000(14) -0.0012(13)
C15 0.0436(16) 0.0397(16) 0.0359(18) 0.0051(14) -0.0002(14) 0.0035(14)
C16 0.0488(18) 0.0430(16) 0.0284(17) 0.0055(14) -0.0025(14) 0.0012(14)
C17 0.071(2) 0.0498(18) 0.0344(18) 0.0046(16) -0.0030(17) 0.0004(17)
C18 0.076(2) 0.062(2) 0.0224(16) 0.0028(16) -0.0002(16) 0.0000(18)
C19 0.0494(18) 0.0519(18) 0.0320(18) -0.0043(15) -0.0002(14) -0.0020(15)
C20 0.076(2) 0.0422(17) 0.0417(19) 0.0058(16) 0.0002(17) -0.0120(17)
C21 0.070(2) 0.0464(17) 0.0253(16) 0.0000(14) -0.0012(15) -0.0052(16)
N2 0.0697(19) 0.0580(16) 0.0398(17) -0.0086(14) -0.0023(14) 0.0004(14)
C22 0.088(3) 0.078(3) 0.041(2) -0.0188(19) -0.0012(19) -0.002(2)
C23 0.107(3) 0.058(2) 0.058(2) -0.013(2) -0.007(2) 0.000(2)

_geom_special_details            
;
 All esds (except the esd in the dihedral angle between two l.s. planes)
 are estimated using the full covariance matrix.  The cell esds are taken
 into account individually in the estimation of esds in distances, angles
 and torsion angles; correlations between esds in cell parameters are only
 used when they are defined by crystal symmetry.  An approximate (isotropic)
 treatment of cell esds is used for estimating esds involving l.s. planes.
;

loop_
_geom_bond_atom_site_label_1
_geom_bond_atom_site_label_2
_geom_bond_distance
_geom_bond_site_symmetry_2
_geom_bond_publ_flag
O1 C15 1.320(3) . ?
O1 B1 1.445(4) . ?
B1 F1 1.382(4) . ?
B1 F2 1.388(4) . ?
B1 N1 1.583(4) . ?
N1 C13 1.347(3) . ?
N1 C1 1.412(3) . ?
C1 C6 1.403(4) . ?
C1 C2 1.416(4) . ?
C2 C3 1.378(4) . ?
C2 H2A 0.9300 . ?
C3 C4 1.376(4) . ?
C3 H3A 0.9300 . ?
C4 C5 1.364(4) . ?
C4 H4A 0.9300 . ?
C5 C6 1.398(4) . ?
C5 H5A 0.9300 . ?
C6 C7 1.449(3) . ?
C7 C12 1.400(4) . ?
C7 C8 1.416(4) . ?
C8 C9 1.363(4) . ?
C8 H8A 0.9300 . ?
C9 C10 1.384(4) . ?
C9 H9A 0.9300 . ?
C10 C11 1.359(4) . ?
C10 H10A 0.9300 . ?
C11 C12 1.399(4) . ?
C11 H11A 0.9300 . ?
C12 C13 1.466(4) . ?
C13 C14 1.406(4) . ?
C14 C15 1.358(4) . ?
C14 H14A 0.9300 . ?
C15 C16 1.448(4) . ?
C16 C21 1.394(4) . ?
C16 C17 1.399(4) . ?
C17 C18 1.369(4) . ?
C17 H17A 0.9300 . ?
C18 C19 1.395(4) . ?
C18 H18A 0.9300 . ?
C19 N2 1.363(4) . ?
C19 C20 1.405(4) . ?
C20 C21 1.369(4) . ?
C20 H20A 0.9300 . ?
C21 H21A 0.9300 . ?
N2 C22 1.442(4) . ?
N2 C23 1.455(4) . ?
C22 H22A 0.9600 . ?
C22 H22B 0.9600 . ?
C22 H22C 0.9600 . ?
C23 H23A 0.9600 . ?
C23 H23B 0.9600 . ?
C23 H23C 0.9600 . ?

loop_
_geom_angle_atom_site_label_1
_geom_angle_atom_site_label_2
_geom_angle_atom_site_label_3
_geom_angle
_geom_angle_site_symmetry_1
_geom_angle_site_symmetry_3
_geom_angle_publ_flag
C15 O1 B1 125.2(3) . . ?
F1 B1 F2 110.0(2) . . ?
F1 B1 O1 108.4(3) . . ?
F2 B1 O1 107.4(3) . . ?
F1 B1 N1 108.7(3) . . ?
F2 B1 N1 110.3(3) . . ?
O1 B1 N1 112.0(2) . . ?
C13 N1 C1 121.2(2) . . ?
C13 N1 B1 119.6(2) . . ?
C1 N1 B1 119.2(2) . . ?
C6 C1 N1 120.9(2) . . ?
C6 C1 C2 119.4(3) . . ?
N1 C1 C2 119.8(3) . . ?
C3 C2 C1 119.3(3) . . ?
C3 C2 H2A 120.4 . . ?
C1 C2 H2A 120.4 . . ?
C4 C3 C2 121.4(3) . . ?
C4 C3 H3A 119.3 . . ?
C2 C3 H3A 119.3 . . ?
C5 C4 C3 119.6(3) . . ?
C5 C4 H4A 120.2 . . ?
C3 C4 H4A 120.2 . . ?
C4 C5 C6 121.6(3) . . ?
C4 C5 H5A 119.2 . . ?
C6 C5 H5A 119.2 . . ?
C5 C6 C1 118.7(3) . . ?
C5 C6 C7 122.5(3) . . ?
C1 C6 C7 118.8(3) . . ?
C12 C7 C8 118.2(3) . . ?
C12 C7 C6 119.6(3) . . ?
C8 C7 C6 122.2(3) . . ?
C9 C8 C7 121.1(3) . . ?
C9 C8 H8A 119.5 . . ?
C7 C8 H8A 119.5 . . ?
C8 C9 C10 119.9(3) . . ?
C8 C9 H9A 120.1 . . ?
C10 C9 H9A 120.1 . . ?
C11 C10 C9 120.6(3) . . ?
C11 C10 H10A 119.7 . . ?
C9 C10 H10A 119.7 . . ?
C10 C11 C12 120.9(3) . . ?
C10 C11 H11A 119.6 . . ?
C12 C11 H11A 119.6 . . ?
C11 C12 C7 119.4(3) . . ?
C11 C12 C13 121.5(2) . . ?
C7 C12 C13 119.1(2) . . ?
N1 C13 C14 119.5(3) . . ?
N1 C13 C12 120.3(2) . . ?
C14 C13 C12 120.2(2) . . ?
C15 C14 C13 123.9(3) . . ?
C15 C14 H14A 118.0 . . ?
C13 C14 H14A 118.0 . . ?
O1 C15 C14 119.6(3) . . ?
O1 C15 C16 115.3(3) . . ?
C14 C15 C16 125.1(3) . . ?
C21 C16 C17 115.7(3) . . ?
C21 C16 C15 122.5(3) . . ?
C17 C16 C15 121.7(3) . . ?
C18 C17 C16 122.3(3) . . ?
C18 C17 H17A 118.8 . . ?
C16 C17 H17A 118.8 . . ?
C17 C18 C19 121.4(3) . . ?
C17 C18 H18A 119.3 . . ?
C19 C18 H18A 119.3 . . ?
N2 C19 C18 122.0(3) . . ?
N2 C19 C20 121.3(3) . . ?
C18 C19 C20 116.7(3) . . ?
C21 C20 C19 121.1(3) . . ?
C21 C20 H20A 119.5 . . ?
C19 C20 H20A 119.5 . . ?
C20 C21 C16 122.6(3) . . ?
C20 C21 H21A 118.7 . . ?
C16 C21 H21A 118.7 . . ?
C19 N2 C22 121.5(3) . . ?
C19 N2 C23 121.2(3) . . ?
C22 N2 C23 117.0(3) . . ?
N2 C22 H22A 109.5 . . ?
N2 C22 H22B 109.5 . . ?
H22A C22 H22B 109.5 . . ?
N2 C22 H22C 109.5 . . ?
H22A C22 H22C 109.5 . . ?
H22B C22 H22C 109.5 . . ?
N2 C23 H23A 109.5 . . ?
N2 C23 H23B 109.5 . . ?
H23A C23 H23B 109.5 . . ?
N2 C23 H23C 109.5 . . ?
H23A C23 H23C 109.5 . . ?
H23B C23 H23C 109.5 . . ?

loop_
_geom_torsion_atom_site_label_1
_geom_torsion_atom_site_label_2
_geom_torsion_atom_site_label_3
_geom_torsion_atom_site_label_4
_geom_torsion
_geom_torsion_site_symmetry_1
_geom_torsion_site_symmetry_2
_geom_torsion_site_symmetry_3
_geom_torsion_site_symmetry_4
_geom_torsion_publ_flag
C15 O1 B1 F1 -121.8(3) . . . . ?
C15 O1 B1 F2 119.5(3) . . . . ?
C15 O1 B1 N1 -1.8(4) . . . . ?
F1 B1 N1 C13 117.2(3) . . . . ?
F2 B1 N1 C13 -122.1(3) . . . . ?
O1 B1 N1 C13 -2.5(4) . . . . ?
F1 B1 N1 C1 -61.4(3) . . . . ?
F2 B1 N1 C1 59.3(3) . . . . ?
O1 B1 N1 C1 178.9(2) . . . . ?
C13 N1 C1 C6 -2.3(4) . . . . ?
B1 N1 C1 C6 176.3(3) . . . . ?
C13 N1 C1 C2 177.2(2) . . . . ?
B1 N1 C1 C2 -4.2(4) . . . . ?
C6 C1 C2 C3 -0.4(4) . . . . ?
N1 C1 C2 C3 -179.9(2) . . . . ?
C1 C2 C3 C4 1.4(4) . . . . ?
C2 C3 C4 C5 -1.3(5) . . . . ?
C3 C4 C5 C6 0.2(4) . . . . ?
C4 C5 C6 C1 0.8(4) . . . . ?
C4 C5 C6 C7 -179.5(3) . . . . ?
N1 C1 C6 C5 178.9(2) . . . . ?
C2 C1 C6 C5 -0.7(4) . . . . ?
N1 C1 C6 C7 -0.9(4) . . . . ?
C2 C1 C6 C7 179.6(2) . . . . ?
C5 C6 C7 C12 -176.7(2) . . . . ?
C1 C6 C7 C12 3.1(4) . . . . ?
C5 C6 C7 C8 3.6(4) . . . . ?
C1 C6 C7 C8 -176.6(3) . . . . ?
C12 C7 C8 C9 1.8(4) . . . . ?
C6 C7 C8 C9 -178.5(3) . . . . ?
C7 C8 C9 C10 -0.4(4) . . . . ?
C8 C9 C10 C11 -1.1(5) . . . . ?
C9 C10 C11 C12 1.2(5) . . . . ?
C10 C11 C12 C7 0.2(4) . . . . ?
C10 C11 C12 C13 -178.9(3) . . . . ?
C8 C7 C12 C11 -1.6(4) . . . . ?
C6 C7 C12 C11 178.6(2) . . . . ?
C8 C7 C12 C13 177.5(2) . . . . ?
C6 C7 C12 C13 -2.2(4) . . . . ?
C1 N1 C13 C14 -177.0(2) . . . . ?
B1 N1 C13 C14 4.4(4) . . . . ?
C1 N1 C13 C12 3.2(4) . . . . ?
B1 N1 C13 C12 -175.4(2) . . . . ?
C11 C12 C13 N1 178.2(2) . . . . ?
C7 C12 C13 N1 -0.9(4) . . . . ?
C11 C12 C13 C14 -1.6(4) . . . . ?
C7 C12 C13 C14 179.3(2) . . . . ?
N1 C13 C14 C15 -2.3(4) . . . . ?
C12 C13 C14 C15 177.5(3) . . . . ?
B1 O1 C15 C14 4.1(5) . . . . ?
B1 O1 C15 C16 -174.2(3) . . . . ?
C13 C14 C15 O1 -2.1(5) . . . . ?
C13 C14 C15 C16 176.1(3) . . . . ?
O1 C15 C16 C21 174.4(3) . . . . ?
C14 C15 C16 C21 -3.8(5) . . . . ?
O1 C15 C16 C17 -2.0(4) . . . . ?
C14 C15 C16 C17 179.8(3) . . . . ?
C21 C16 C17 C18 -3.4(5) . . . . ?
C15 C16 C17 C18 173.3(3) . . . . ?
C16 C17 C18 C19 0.5(5) . . . . ?
C17 C18 C19 N2 -176.7(3) . . . . ?
C17 C18 C19 C20 2.1(5) . . . . ?
N2 C19 C20 C21 177.0(3) . . . . ?
C18 C19 C20 C21 -1.9(5) . . . . ?
C19 C20 C21 C16 -1.1(5) . . . . ?
C17 C16 C21 C20 3.7(5) . . . . ?
C15 C16 C21 C20 -173.0(3) . . . . ?
C18 C19 N2 C22 2.0(5) . . . . ?
C20 C19 N2 C22 -176.8(3) . . . . ?
C18 C19 N2 C23 176.7(3) . . . . ?
C20 C19 N2 C23 -2.2(5) . . . . ?

loop_
_geom_hbond_atom_site_label_D
_geom_hbond_atom_site_label_H
_geom_hbond_atom_site_label_A
_geom_hbond_distance_DH
_geom_hbond_distance_HA
_geom_hbond_distance_DA
_geom_hbond_angle_DHA
_geom_hbond_site_symmetry_A
_geom_hbond_publ_flag
C2 H2A F1 0.93 2.46 2.967(4) 114.0 . yes
C2 H2A F2 0.93 2.30 2.888(4) 120.9 . yes
C23 H23B F2 0.96 2.62 3.568(4) 167.9 8_755 yes

_refine_diff_density_max         0.224
_refine_diff_density_min         -0.242
_refine_diff_density_rms         0.058

_shelx_res_file                  
;
TITL e1446a in Pbca
    e1446a.res
    created by SHELXL-2017/1 at 21:47:25 on 06-Jun-2019
REM Pbca (#61 in standard setting)
CELL 0.71073   7.401183  18.134603  27.311545  90.0000  90.0000  90.0000
ZERR    8.00   0.000879   0.002005   0.003308   0.0000   0.0000   0.0000
LATT  1
SYMM -x+1/2,-y, z+1/2
SYMM -x, y+1/2,-z+1/2
SYMM  x+1/2,-y+1/2,-z
SFAC C H B N O F
UNIT 184.00 152.00 8.00 16.00 8.00 16.00

TEMP  20
SIZE  0.529 0.141 0.103

L.S. 14
BOND $H
FMAP 2
PLAN 10

OMIT  -3
OMIT   0   2   0

ACTA
CONF
HTAB
HTAB C2 F1
HTAB C2 F2
EQIV $1 -x+3/2, y-1/2, z
HTAB C23 F2_$1

WGHT    0.059600
FVAR       0.73031
MOLE   1
O1    5    0.514781   -0.002481    0.097182    11.00000    0.11249    0.04517 =
         0.03813    0.00898   -0.00503   -0.01156
B1    3    0.569535    0.065569    0.120353    11.00000    0.05662    0.03851 =
         0.03960    0.01247    0.00371   -0.00102
F1    6    0.441559    0.118805    0.110008    11.00000    0.06183    0.05820 =
         0.05405    0.01714   -0.00701    0.01050
F2    6    0.734879    0.085603    0.100446    11.00000    0.05900    0.07687 =
         0.04922    0.01629    0.01474   -0.00234
N1    4    0.585729    0.057312    0.177875    11.00000    0.04023    0.03293 =
         0.03598    0.00415    0.00156    0.00332
C1    1    0.641125    0.118568    0.206058    11.00000    0.03044    0.03070 =
         0.04901    0.00445   -0.00018    0.00223
C2    1    0.692892    0.184739    0.182411    11.00000    0.04973    0.03800 =
         0.05808    0.01270    0.00442   -0.00028
AFIX  43
H2A   2    0.690435    0.188109    0.148440    11.00000   -1.20000
AFIX   0
C3    1    0.746956    0.244094    0.210283    11.00000    0.04787    0.02815 =
         0.08105    0.00876    0.00289   -0.00333
AFIX  43
H3A   2    0.778507    0.287916    0.194800    11.00000   -1.20000
AFIX   0
C4    1    0.755270    0.239923    0.260532    11.00000    0.04557    0.03593 =
         0.07214   -0.00221    0.00083   -0.00393
AFIX  43
H4A   2    0.794388    0.280257    0.278696    11.00000   -1.20000
AFIX   0
C5    1    0.705829    0.176313    0.283560    11.00000    0.04840    0.03318 =
         0.05245   -0.00264    0.00248    0.00412
AFIX  43
H5A   2    0.711429    0.173921    0.317540    11.00000   -1.20000
AFIX   0
C6    1    0.646956    0.114635    0.257351    11.00000    0.03050    0.03121 =
         0.04437    0.00020    0.00053    0.00671
C7    1    0.592398    0.046752    0.281124    11.00000    0.02948    0.03164 =
         0.03768    0.00210    0.00083    0.00584
C8    1    0.585442    0.039730    0.332727    11.00000    0.05128    0.03747 =
         0.03777   -0.00593   -0.00073    0.00410
AFIX  43
H8A   2    0.613936    0.080093    0.352262    11.00000   -1.20000
AFIX   0
C9    1    0.537676   -0.025209    0.354223    11.00000    0.06088    0.04965 =
         0.03169    0.00571    0.00116    0.00270
AFIX  43
H9A   2    0.534517   -0.029052    0.388168    11.00000   -1.20000
AFIX   0
C10   1    0.493862   -0.085448    0.325456    11.00000    0.06021    0.04033 =
         0.04012    0.00975    0.00184   -0.00301
AFIX  43
H10A  2    0.463343   -0.129940    0.340234    11.00000   -1.20000
AFIX   0
C11   1    0.495021   -0.080193    0.275838    11.00000    0.05015    0.03373 =
         0.03913    0.00242   -0.00261   -0.00092
AFIX  43
H11A  2    0.462970   -0.120898    0.257035    11.00000   -1.20000
AFIX   0
C12   1    0.543823   -0.014318    0.252652    11.00000    0.03223    0.03195 =
         0.03537    0.00004   -0.00125    0.00564
C13   1    0.542813   -0.007337    0.199180    11.00000    0.02897    0.03162 =
         0.03934    0.00699    0.00004    0.00252
C14   1    0.496395   -0.068053    0.169718    11.00000    0.04466    0.03385 =
         0.03596    0.00641   -0.00002   -0.00123
AFIX  43
H14A  2    0.471526   -0.112645    0.185125    11.00000   -1.20000
AFIX   0
C15   1    0.485723   -0.065444    0.120109    11.00000    0.04365    0.03966 =
         0.03592    0.00512   -0.00016    0.00352
C16   1    0.449027   -0.127984    0.088671    11.00000    0.04876    0.04303 =
         0.02837    0.00547   -0.00253    0.00117
C17   1    0.439683   -0.120776    0.037719    11.00000    0.07135    0.04984 =
         0.03444    0.00462   -0.00299    0.00044
AFIX  43
H17A  2    0.444778   -0.073842    0.024065    11.00000   -1.20000
AFIX   0
C18   1    0.423307   -0.180360    0.007258    11.00000    0.07582    0.06235 =
         0.02236    0.00276   -0.00021   -0.00005
AFIX  43
H18A  2    0.418639   -0.172894   -0.026407    11.00000   -1.20000
AFIX   0
C19   1    0.413473   -0.252028    0.025621    11.00000    0.04940    0.05191 =
         0.03203   -0.00432   -0.00019   -0.00196
C20   1    0.414903   -0.259682    0.076821    11.00000    0.07627    0.04216 =
         0.04171    0.00580    0.00022   -0.01203
AFIX  43
H20A  2    0.404997   -0.306408    0.090594    11.00000   -1.20000
AFIX   0
C21   1    0.430637   -0.199483    0.106747    11.00000    0.06976    0.04637 =
         0.02527   -0.00002   -0.00124   -0.00525
AFIX  43
H21A  2    0.428995   -0.206557    0.140470    11.00000   -1.20000
AFIX   0
N2    4    0.406045   -0.312012   -0.004376    11.00000    0.06975    0.05797 =
         0.03978   -0.00858   -0.00230    0.00038
C22   1    0.413887   -0.304695   -0.056901    11.00000    0.08786    0.07823 =
         0.04143   -0.01876   -0.00116   -0.00246
AFIX  33
H22A  2    0.406819   -0.352627   -0.071698    11.00000   -1.20000
H22B  2    0.314485   -0.275032   -0.067945    11.00000   -1.20000
H22C  2    0.525577   -0.281556   -0.066031    11.00000   -1.20000
AFIX   0
C23   1    0.405643   -0.386532    0.015394    11.00000    0.10661    0.05764 =
         0.05767   -0.01271   -0.00723   -0.00035
AFIX  33
H23A  2    0.399938   -0.421412   -0.011002    11.00000   -1.20000
H23B  2    0.514157   -0.394490    0.033910    11.00000   -1.20000
H23C  2    0.302567   -0.392853    0.036314    11.00000   -1.20000

AFIX   0
HKLF 4




REM  e1446a in Pbca
REM R1 =  0.0632 for    1934 Fo > 4sig(Fo)  and  0.1564 for all    4213 data
REM    262 parameters refined using      0 restraints

END

WGHT      0.0596      0.0000

REM Instructions for potential hydrogen bonds
HTAB C2 F1
HTAB C2 F2
HTAB C23 F2_$1

REM Highest difference peak  0.224,  deepest hole -0.242,  1-sigma level  0.058
Q1    1   0.5408 -0.3665 -0.0775  11.00000  0.05    0.22
Q2    1   0.5498 -0.4519 -0.0488  11.00000  0.05    0.22
Q3    1   0.3023 -0.3376 -0.0779  11.00000  0.05    0.22
Q4    1   0.5770 -0.0942  0.3023  11.00000  0.05    0.21
Q5    1   0.4177 -0.1391  0.3764  11.00000  0.05    0.21
Q6    1   0.6095 -0.0192  0.2290  11.00000  0.05    0.20
Q7    1   0.6177 -0.0646  0.3423  11.00000  0.05    0.20
Q8    1   0.5663 -0.0357  0.0276  11.00000  0.05    0.20
Q9    1   0.5224 -0.3346 -0.0727  11.00000  0.05    0.20
Q10   1   0.5550 -0.1871  0.1510  11.00000  0.05    0.19
;
_shelx_res_checksum              82810

_exptl_crystal_recrystallization_method 'Re-crystallisation from solvent'
####################################################################### 
# 
# This file contains crystal structure data downloaded from the 
# Cambridge Structural Database (CSD) hosted by the Cambridge 
# Crystallographic Data Centre (CCDC).
# 
# Full information about CCDC data access policies and citation 
# guidelines are available at http://www.ccdc.cam.ac.uk/access/V1 
# 
# Audit and citation data items may have been added by the CCDC. 
# Please retain this information to preserve the provenance of 
# this file and to allow appropriate attribution of the data. 
# 
#######################################################################

data_e1444a_a
_database_code_depnum_ccdc_archive 'CCDC 2090002'
loop_
_audit_author_name
_audit_author_address
'Andrzej Wojtczak'
;Nicolaus Copernicus University
Poland
;
_audit_update_record             
;
2021-06-15 deposited with the CCDC.	2021-09-28 downloaded from the CCDC.
;

_audit_creation_method           SHELXL-2017/1
_shelx_SHELXL_version_number     2017/1
_chemical_name_systematic        ?
_chemical_name_common            ?
_chemical_melting_point          ?
_chemical_formula_moiety         'C19 H17 B F2 N2 O'
_chemical_formula_sum            'C19 H17 B F2 N2 O'
_chemical_formula_weight         338.15

loop_
_atom_type_symbol
_atom_type_description
_atom_type_scat_dispersion_real
_atom_type_scat_dispersion_imag
_atom_type_scat_source
C C 0.0033 0.0016 'International Tables Vol C Tables 4.2.6.8 and 6.1.1.4'
H H 0.0000 0.0000 'International Tables Vol C Tables 4.2.6.8 and 6.1.1.4'
B B 0.0013 0.0007 'International Tables Vol C Tables 4.2.6.8 and 6.1.1.4'
N N 0.0061 0.0033 'International Tables Vol C Tables 4.2.6.8 and 6.1.1.4'
O O 0.0106 0.0060 'International Tables Vol C Tables 4.2.6.8 and 6.1.1.4'
F F 0.0171 0.0103 'International Tables Vol C Tables 4.2.6.8 and 6.1.1.4'

_space_group_crystal_system      orthorhombic
_space_group_IT_number           61
_space_group_name_H-M_alt        'P b c a'
_space_group_name_Hall           '-P 2ac 2ab'

_shelx_space_group_comment       
;
The symmetry employed for this shelxl refinement is uniquely defined
by the following loop, which should always be used as a source of
symmetry information in preference to the above space-group names.
They are only intended as comments.
;

loop_
_space_group_symop_operation_xyz
'x, y, z'
'-x+1/2, -y, z+1/2'
'-x, y+1/2, -z+1/2'
'x+1/2, -y+1/2, -z'
'-x, -y, -z'
'x-1/2, y, -z-1/2'
'x, -y-1/2, z-1/2'
'-x-1/2, y-1/2, z'

_cell_length_a                   30.6090(18)
_cell_length_b                   7.2702(5)
_cell_length_c                   44.556(2)
_cell_angle_alpha                90
_cell_angle_beta                 90
_cell_angle_gamma                90
_cell_volume                     9915.3(10)
_cell_formula_units_Z            24
_cell_measurement_temperature    293(2)
_cell_measurement_reflns_used    3845
_cell_measurement_theta_min      2.6580
_cell_measurement_theta_max      22.4660

_exptl_crystal_description       needle
_exptl_crystal_colour            orange
_exptl_crystal_density_meas      ?
_exptl_crystal_density_method    ?
_exptl_crystal_density_diffrn    1.359
_exptl_crystal_F_000             4224
_exptl_transmission_factor_min   ?
_exptl_transmission_factor_max   ?
_exptl_crystal_size_max          0.521
_exptl_crystal_size_mid          0.140
_exptl_crystal_size_min          0.046
_exptl_absorpt_coefficient_mu    0.099
_shelx_estimated_absorpt_T_min   0.950
_shelx_estimated_absorpt_T_max   0.995
_exptl_absorpt_correction_type   analytical
_exptl_absorpt_correction_T_min  0.969
_exptl_absorpt_correction_T_max  0.996
_exptl_absorpt_process_details   'CrysAlisPro 1.171.38.43 (Rigaku OD, 2015)'
_exptl_absorpt_special_details   
;
CrysAlisPro 1.171.38.43 (Rigaku Oxford Diffraction, 2015)
Analytical numeric absorption correction using a multifaceted crystal
model based on expressions derived by R.C. Clark & J.S. Reid.
(Clark, R. C. & Reid, J. S. (1995). Acta Cryst. A51, 887-897)
Empirical absorption correction using spherical harmonics,
 implemented in SCALE3 ABSPACK scaling algorithm.
;
_diffrn_ambient_temperature      293(2)
_diffrn_radiation_wavelength     0.71073
_diffrn_radiation_type           MoK\a
_diffrn_source                   'fine-focus sealed tube'
_diffrn_measurement_device_type  'Oxford Sapphire CCD'
_diffrn_measurement_method       \q/2\q
_diffrn_detector_area_resol_mean 8.2564
_diffrn_reflns_number            52584
_diffrn_reflns_av_unetI/netI     0.1034
_diffrn_reflns_av_R_equivalents  0.1731
_diffrn_reflns_limit_h_min       -34
_diffrn_reflns_limit_h_max       35
_diffrn_reflns_limit_k_min       -8
_diffrn_reflns_limit_k_max       8
_diffrn_reflns_limit_l_min       -50
_diffrn_reflns_limit_l_max       49
_diffrn_reflns_theta_min         2.195
_diffrn_reflns_theta_max         23.999
_diffrn_reflns_theta_full        23.999
_diffrn_measured_fraction_theta_max 0.999
_diffrn_measured_fraction_theta_full 0.999
_diffrn_reflns_Laue_measured_fraction_max 0.999
_diffrn_reflns_Laue_measured_fraction_full 0.999
_diffrn_reflns_point_group_measured_fraction_max 0.999
_diffrn_reflns_point_group_measured_fraction_full 0.999
_reflns_number_total             7780
_reflns_number_gt                3772
_reflns_threshold_expression     'I > 2\s(I)'
_reflns_Friedel_coverage         0.000
_reflns_Friedel_fraction_max     .
_reflns_Friedel_fraction_full    .

_reflns_special_details          
;
 Reflections were merged by SHELXL according to the crystal
 class for the calculation of statistics and refinement.
 
 _reflns_Friedel_fraction is defined as the number of unique
 Friedel pairs measured divided by the number that would be
 possible theoretically, ignoring centric projections and
 systematic absences.
;

_computing_data_collection       'CrysAlisPro 1.171.38.43 (Rigaku OD, 2015)'
_computing_cell_refinement       'CrysAlisPro 1.171.38.43 (Rigaku OD, 2015)'
_computing_data_reduction        'CrysAlisPro 1.171.38.43 (Rigaku OD, 2015)'
_computing_structure_solution    'SHELXT 2014/5 (Sheldrick, 2014)'
_computing_structure_refinement  'SHELXL-2017/1 (Sheldrick, 2017)'
_computing_molecular_graphics    ?
_computing_publication_material  'CIFTAB-2017 (Sheldrick, 2017)'
_refine_special_details          ?
_refine_ls_structure_factor_coef Fsqd
_refine_ls_matrix_type           full
_refine_ls_weighting_scheme      calc
_refine_ls_weighting_details     
'w=1/[\s^2^(Fo^2^)+(0.0619P)^2^] where P=(Fo^2^+2Fc^2^)/3'
_atom_sites_solution_primary     direct
_atom_sites_solution_secondary   difmap
_atom_sites_solution_hydrogens   difmap
_refine_ls_hydrogen_treatment    constr
_refine_ls_extinction_method     none
_refine_ls_extinction_coef       .
_refine_ls_number_reflns         7780
_refine_ls_number_parameters     676
_refine_ls_number_restraints     0
_refine_ls_R_factor_all          0.1835
_refine_ls_R_factor_gt           0.0890
_refine_ls_wR_factor_ref         0.2093
_refine_ls_wR_factor_gt          0.1684
_refine_ls_goodness_of_fit_ref   1.037
_refine_ls_restrained_S_all      1.037
_refine_ls_shift/su_max          0.000
_refine_ls_shift/su_mean         0.000

loop_
_atom_site_label
_atom_site_type_symbol
_atom_site_fract_x
_atom_site_fract_y
_atom_site_fract_z
_atom_site_U_iso_or_equiv
_atom_site_adp_type
_atom_site_occupancy
_atom_site_site_symmetry_order
_atom_site_calc_flag
_atom_site_refinement_flags_posn
_atom_site_refinement_flags_adp
_atom_site_refinement_flags_occupancy
_atom_site_disorder_assembly
_atom_site_disorder_group
O1 O 0.61630(10) 0.9007(5) 0.60587(7) 0.0531(10) Uani 1 1 d . . . . .
B1 B 0.65090(19) 0.8863(9) 0.62816(13) 0.0489(16) Uani 1 1 d . . . . .
F1 F 0.64548(9) 0.7303(5) 0.64522(6) 0.0780(10) Uani 1 1 d . . . . .
F2 F 0.65030(9) 1.0396(5) 0.64614(6) 0.0825(11) Uani 1 1 d . . . . .
N1 N 0.69648(12) 0.8714(5) 0.61207(8) 0.0399(10) Uani 1 1 d . . . . .
C1 C 0.73340(17) 0.9129(6) 0.62838(10) 0.0473(14) Uani 1 1 d . . . . .
H1A H 0.730152 0.958761 0.647738 0.057 Uiso 1 1 calc R U . . .
C2 C 0.77377(16) 0.8897(6) 0.61748(11) 0.0480(14) Uani 1 1 d . . . . .
H2A H 0.797967 0.919060 0.629163 0.058 Uiso 1 1 calc R U . . .
C3 C 0.77936(15) 0.8207(6) 0.58830(10) 0.0376(12) Uani 1 1 d . . . . .
C4 C 0.82098(16) 0.7935(7) 0.57571(12) 0.0523(14) Uani 1 1 d . . . . .
H4A H 0.845703 0.821559 0.586946 0.063 Uiso 1 1 calc R U . . .
C5 C 0.82564(17) 0.7273(7) 0.54764(13) 0.0575(16) Uani 1 1 d . . . . .
H5A H 0.853394 0.711820 0.539537 0.069 Uiso 1 1 calc R U . . .
C6 C 0.78879(16) 0.6820(6) 0.53074(11) 0.0484(14) Uani 1 1 d . . . . .
H6A H 0.792169 0.634224 0.511521 0.058 Uiso 1 1 calc R U . . .
C7 C 0.74777(16) 0.7072(6) 0.54216(10) 0.0425(13) Uani 1 1 d . . . . .
H7A H 0.723461 0.678189 0.530573 0.051 Uiso 1 1 calc R U . . .
C8 C 0.74223(14) 0.7761(6) 0.57100(10) 0.0333(12) Uani 1 1 d . . . . .
C9 C 0.69969(14) 0.8050(6) 0.58363(11) 0.0369(12) Uani 1 1 d . . . . .
C10 C 0.66047(15) 0.7734(6) 0.56793(10) 0.0431(13) Uani 1 1 d . . . . .
H10A H 0.661813 0.714027 0.549464 0.052 Uiso 1 1 calc R U . . .
C11 C 0.62068(16) 0.8258(6) 0.57857(11) 0.0417(13) Uani 1 1 d . . . . .
C12 C 0.57985(16) 0.8104(7) 0.56171(11) 0.0441(13) Uani 1 1 d . . . . .
C13 C 0.57963(15) 0.7916(7) 0.53063(11) 0.0510(14) Uani 1 1 d . . . . .
H13A H 0.606188 0.793398 0.520504 0.061 Uiso 1 1 calc R U . . .
C14 C 0.54196(16) 0.7705(7) 0.51423(11) 0.0557(15) Uani 1 1 d . . . . .
H14A H 0.543539 0.759360 0.493468 0.067 Uiso 1 1 calc R U . . .
C15 C 0.50062(17) 0.7654(7) 0.52869(13) 0.0516(14) Uani 1 1 d . . . . .
C16 C 0.50089(16) 0.7895(7) 0.55967(13) 0.0596(16) Uani 1 1 d . . . . .
H16A H 0.474507 0.789474 0.570023 0.072 Uiso 1 1 calc R U . . .
C17 C 0.53911(17) 0.8131(7) 0.57537(11) 0.0577(15) Uani 1 1 d . . . . .
H17A H 0.537612 0.831709 0.595994 0.069 Uiso 1 1 calc R U . . .
N2 N 0.46314(14) 0.7338(6) 0.51281(11) 0.0663(14) Uani 1 1 d . . . . .
C18 C 0.46343(18) 0.7218(8) 0.48051(13) 0.0781(19) Uani 1 1 d . . . . .
H18A H 0.434302 0.699126 0.473415 0.117 Uiso 1 1 calc R U . . .
H18B H 0.473976 0.835293 0.472230 0.117 Uiso 1 1 calc R U . . .
H18C H 0.482187 0.622855 0.474368 0.117 Uiso 1 1 calc R U . . .
C19 C 0.42112(17) 0.7311(9) 0.52838(14) 0.095(2) Uani 1 1 d . . . . .
H19A H 0.398191 0.707326 0.514195 0.142 Uiso 1 1 calc R U . . .
H19B H 0.421340 0.636184 0.543355 0.142 Uiso 1 1 calc R U . . .
H19C H 0.416223 0.848023 0.537806 0.142 Uiso 1 1 calc R U . . .
N21 N 0.79773(12) 0.3853(5) 0.77997(8) 0.0389(10) Uani 1 1 d . . . . .
B21 B 0.84128(19) 0.3676(9) 0.79847(13) 0.0457(16) Uani 1 1 d . . . . .
F21 F 0.84052(9) 0.2118(5) 0.81515(7) 0.0820(11) Uani 1 1 d . . . . .
F22 F 0.84369(10) 0.5195(5) 0.81692(7) 0.0867(11) Uani 1 1 d . . . . .
O21 O 0.87779(10) 0.3611(5) 0.77830(7) 0.0590(10) Uani 1 1 d . . . . .
C21 C 0.75895(17) 0.3409(6) 0.79380(10) 0.0442(13) Uani 1 1 d . . . . .
H21A H 0.759965 0.290728 0.812985 0.053 Uiso 1 1 calc R U . . .
C22 C 0.72023(15) 0.3661(6) 0.78116(11) 0.0453(13) Uani 1 1 d . . . . .
H22A H 0.694831 0.333728 0.791325 0.054 Uiso 1 1 calc R U . . .
C23 C 0.71795(15) 0.4428(6) 0.75198(10) 0.0395(13) Uani 1 1 d . . . . .
C24 C 0.67730(16) 0.4732(7) 0.73709(12) 0.0526(15) Uani 1 1 d . . . . .
H24A H 0.651268 0.441742 0.746546 0.063 Uiso 1 1 calc R U . . .
C25 C 0.67648(16) 0.5476(7) 0.70932(12) 0.0542(15) Uani 1 1 d . . . . .
H25A H 0.649817 0.566415 0.699791 0.065 Uiso 1 1 calc R U . . .
C26 C 0.71502(16) 0.5965(6) 0.69475(11) 0.0480(14) Uani 1 1 d . . . . .
H26A H 0.713831 0.648969 0.675729 0.058 Uiso 1 1 calc R U . . .
C27 C 0.75463(15) 0.5680(6) 0.70820(10) 0.0391(12) Uani 1 1 d . . . . .
H27A H 0.780172 0.599464 0.698129 0.047 Uiso 1 1 calc R U . . .
C28 C 0.75699(15) 0.4916(6) 0.73708(10) 0.0359(12) Uani 1 1 d . . . . .
C29 C 0.79753(15) 0.4562(6) 0.75214(10) 0.0350(12) Uani 1 1 d . . . . .
C30 C 0.83880(16) 0.4877(7) 0.73829(10) 0.0427(13) Uani 1 1 d . . . . .
H30A H 0.839569 0.547152 0.719812 0.051 Uiso 1 1 calc R U . . .
C31 C 0.87686(16) 0.4346(7) 0.75097(11) 0.0445(14) Uani 1 1 d . . . . .
C32 C 0.91944(16) 0.4397(7) 0.73619(11) 0.0464(13) Uani 1 1 d . . . . .
C33 C 0.92589(16) 0.5277(7) 0.70909(12) 0.0597(16) Uani 1 1 d . . . . .
H33A H 0.902385 0.586845 0.700047 0.072 Uiso 1 1 calc R U . . .
C34 C 0.96598(18) 0.5309(8) 0.69496(12) 0.0663(17) Uani 1 1 d . . . . .
H34A H 0.969056 0.593972 0.676917 0.080 Uiso 1 1 calc R U . . .
C35 C 1.00216(16) 0.4405(7) 0.70742(12) 0.0524(14) Uani 1 1 d . . . . .
C36 C 0.99567(16) 0.3519(8) 0.73442(12) 0.0617(16) Uani 1 1 d . . . . .
H36A H 1.018956 0.290402 0.743324 0.074 Uiso 1 1 calc R U . . .
C37 C 0.95564(17) 0.3518(7) 0.74859(11) 0.0566(15) Uani 1 1 d . . . . .
H37A H 0.952714 0.291581 0.766888 0.068 Uiso 1 1 calc R U . . .
N22 N 1.04217(14) 0.4386(7) 0.69323(11) 0.0726(15) Uani 1 1 d . . . . .
C38 C 1.04999(18) 0.5388(10) 0.66632(14) 0.109(3) Uani 1 1 d . . . . .
H38A H 1.079633 0.519954 0.659996 0.163 Uiso 1 1 calc R U . . .
H38B H 1.030456 0.496590 0.650936 0.163 Uiso 1 1 calc R U . . .
H38C H 1.045151 0.667424 0.669884 0.163 Uiso 1 1 calc R U . . .
C39 C 1.07907(18) 0.3481(9) 0.70615(14) 0.096(2) Uani 1 1 d . . . . .
H39A H 1.103829 0.361473 0.693107 0.144 Uiso 1 1 calc R U . . .
H39B H 1.085560 0.402090 0.725302 0.144 Uiso 1 1 calc R U . . .
H39C H 1.072624 0.219825 0.708734 0.144 Uiso 1 1 calc R U . . .
N41 N 0.70551(12) -0.2582(5) 0.94588(8) 0.0366(10) Uani 1 1 d . . . . .
B41 B 0.6616(2) -0.2736(9) 0.96355(13) 0.0446(15) Uani 1 1 d . . . . .
F41 F 0.65993(9) -0.4386(4) 0.97829(6) 0.0656(9) Uani 1 1 d . . . . .
F42 F 0.66102(9) -0.1319(4) 0.98417(6) 0.0692(9) Uani 1 1 d . . . . .
O41 O 0.62491(10) -0.2584(5) 0.94355(7) 0.0569(10) Uani 1 1 d . . . . .
C41 C 0.74333(16) -0.3082(6) 0.96057(10) 0.0423(13) Uani 1 1 d . . . . .
H41A H 0.741247 -0.362354 0.979427 0.051 Uiso 1 1 calc R U . . .
C42 C 0.78310(16) -0.2815(6) 0.94857(10) 0.0420(13) Uani 1 1 d . . . . .
H42A H 0.807957 -0.315737 0.959192 0.050 Uiso 1 1 calc R U . . .
C43 C 0.78712(15) -0.2017(6) 0.91999(10) 0.0380(12) Uani 1 1 d . . . . .
C44 C 0.82835(16) -0.1695(7) 0.90668(11) 0.0491(14) Uani 1 1 d . . . . .
H44A H 0.853648 -0.200110 0.917097 0.059 Uiso 1 1 calc R U . . .
C45 C 0.83142(16) -0.0948(7) 0.87901(12) 0.0558(15) Uani 1 1 d . . . . .
H45A H 0.858722 -0.075523 0.870400 0.067 Uiso 1 1 calc R U . . .
C46 C 0.79382(17) -0.0466(7) 0.86338(11) 0.0508(14) Uani 1 1 d . . . . .
H46A H 0.796338 0.005242 0.844370 0.061 Uiso 1 1 calc R U . . .
C47 C 0.75316(16) -0.0738(6) 0.87539(10) 0.0441(13) Uani 1 1 d . . . . .
H47A H 0.728385 -0.039749 0.864655 0.053 Uiso 1 1 calc R U . . .
C48 C 0.74895(15) -0.1537(6) 0.90412(10) 0.0359(12) Uani 1 1 d . . . . .
C49 C 0.70704(14) -0.1841(6) 0.91820(10) 0.0345(12) Uani 1 1 d . . . . .
C50 C 0.66676(15) -0.1407(6) 0.90408(10) 0.0401(13) Uani 1 1 d . . . . .
H50A H 0.667337 -0.083657 0.885404 0.048 Uiso 1 1 calc R U . . .
C51 C 0.62720(15) -0.1794(6) 0.91678(11) 0.0403(12) Uani 1 1 d . . . . .
C52 C 0.58520(16) -0.1435(7) 0.90245(10) 0.0429(13) Uani 1 1 d . . . . .
C53 C 0.58109(16) -0.0344(7) 0.87717(12) 0.0549(15) Uani 1 1 d . . . . .
H53A H 0.606056 0.017474 0.868810 0.066 Uiso 1 1 calc R U . . .
C54 C 0.54101(16) 0.0001(7) 0.86392(11) 0.0592(16) Uani 1 1 d . . . . .
H54A H 0.539214 0.077585 0.847362 0.071 Uiso 1 1 calc R U . . .
C55 C 0.50325(16) -0.0817(7) 0.87544(12) 0.0515(14) Uani 1 1 d . . . . .
C56 C 0.50755(17) -0.1920(7) 0.90106(12) 0.0615(16) Uani 1 1 d . . . . .
H56A H 0.482877 -0.246705 0.909343 0.074 Uiso 1 1 calc R U . . .
C57 C 0.54719(17) -0.2203(7) 0.91401(11) 0.0575(15) Uani 1 1 d . . . . .
H57A H 0.548926 -0.293306 0.931105 0.069 Uiso 1 1 calc R U . . .
N42 N 0.46325(14) -0.0542(7) 0.86182(11) 0.0695(14) Uani 1 1 d . . . . .
C58 C 0.45900(18) 0.0627(10) 0.83613(14) 0.106(3) Uani 1 1 d . . . . .
H58A H 0.429030 0.065134 0.829790 0.159 Uiso 1 1 calc R U . . .
H58B H 0.468219 0.184934 0.841237 0.159 Uiso 1 1 calc R U . . .
H58C H 0.476895 0.016285 0.820139 0.159 Uiso 1 1 calc R U . . .
C59 C 0.42383(17) -0.1275(8) 0.87496(14) 0.090(2) Uani 1 1 d . . . . .
H59A H 0.399262 -0.095614 0.862627 0.135 Uiso 1 1 calc R U . . .
H59B H 0.426094 -0.258965 0.876328 0.135 Uiso 1 1 calc R U . . .
H59C H 0.419928 -0.076806 0.894673 0.135 Uiso 1 1 calc R U . . .

loop_
_atom_site_aniso_label
_atom_site_aniso_U_11
_atom_site_aniso_U_22
_atom_site_aniso_U_33
_atom_site_aniso_U_23
_atom_site_aniso_U_13
_atom_site_aniso_U_12
O1 0.034(2) 0.080(3) 0.046(2) -0.001(2) 0.0031(17) 0.0112(18)
B1 0.041(4) 0.068(5) 0.038(4) -0.005(4) 0.005(3) 0.007(3)
F1 0.047(2) 0.117(3) 0.070(2) 0.041(2) 0.0012(16) -0.0060(18)
F2 0.060(2) 0.118(3) 0.069(2) -0.045(2) 0.0063(17) 0.0147(19)
N1 0.042(3) 0.043(3) 0.035(2) 0.002(2) 0.001(2) 0.001(2)
C1 0.053(4) 0.056(4) 0.033(3) -0.003(3) -0.014(3) -0.004(3)
C2 0.038(4) 0.059(4) 0.047(4) -0.005(3) -0.007(3) -0.006(3)
C3 0.032(3) 0.044(3) 0.037(3) 0.006(2) -0.002(2) 0.000(2)
C4 0.031(3) 0.068(4) 0.058(4) 0.006(3) -0.004(3) -0.004(3)
C5 0.031(4) 0.074(4) 0.067(4) 0.008(3) 0.014(3) -0.001(3)
C6 0.047(4) 0.052(3) 0.047(3) -0.001(3) 0.006(3) 0.002(3)
C7 0.032(3) 0.050(3) 0.046(3) -0.005(3) 0.003(2) 0.001(2)
C8 0.026(3) 0.036(3) 0.038(3) 0.005(2) 0.001(2) 0.002(2)
C9 0.031(3) 0.038(3) 0.042(3) 0.004(2) -0.004(2) 0.003(2)
C10 0.030(3) 0.054(3) 0.045(3) -0.007(3) 0.007(2) 0.009(3)
C11 0.039(3) 0.048(3) 0.038(3) 0.004(3) -0.004(3) -0.002(3)
C12 0.033(3) 0.061(4) 0.038(3) 0.001(3) 0.001(3) 0.009(3)
C13 0.026(3) 0.075(4) 0.052(4) -0.001(3) -0.001(3) 0.002(3)
C14 0.037(4) 0.081(4) 0.050(4) 0.002(3) 0.003(3) 0.001(3)
C15 0.040(4) 0.060(4) 0.055(4) 0.008(3) -0.003(3) 0.000(3)
C16 0.024(3) 0.091(5) 0.064(4) 0.012(3) 0.010(3) 0.005(3)
C17 0.040(4) 0.082(4) 0.051(4) 0.008(3) 0.008(3) 0.012(3)
N2 0.037(3) 0.093(4) 0.069(4) -0.001(3) -0.009(3) -0.003(3)
C18 0.058(4) 0.087(5) 0.089(5) 0.000(4) -0.020(4) -0.001(3)
C19 0.028(4) 0.144(6) 0.113(5) 0.013(4) -0.004(3) -0.010(4)
N21 0.033(3) 0.047(3) 0.037(3) 0.007(2) 0.002(2) 0.001(2)
B21 0.037(4) 0.067(5) 0.033(4) 0.012(3) -0.001(3) 0.003(3)
F21 0.051(2) 0.108(3) 0.087(2) 0.058(2) -0.0037(17) 0.0006(18)
F22 0.070(3) 0.123(3) 0.067(2) -0.029(2) -0.0156(18) 0.002(2)
O21 0.038(2) 0.091(3) 0.048(2) 0.021(2) -0.0005(18) 0.003(2)
C21 0.051(4) 0.044(3) 0.037(3) 0.002(2) 0.008(3) 0.002(3)
C22 0.029(3) 0.059(4) 0.047(3) -0.002(3) 0.010(3) 0.000(3)
C23 0.035(3) 0.045(3) 0.038(3) -0.002(2) -0.001(2) 0.006(2)
C24 0.030(3) 0.064(4) 0.065(4) 0.001(3) 0.006(3) 0.001(3)
C25 0.039(4) 0.062(4) 0.063(4) -0.001(3) -0.012(3) 0.007(3)
C26 0.041(4) 0.055(4) 0.048(3) -0.006(3) -0.006(3) 0.006(3)
C27 0.037(3) 0.050(3) 0.031(3) -0.001(2) 0.002(2) -0.004(2)
C28 0.035(3) 0.040(3) 0.032(3) -0.003(2) 0.001(2) -0.003(2)
C29 0.036(3) 0.029(3) 0.040(3) 0.000(2) -0.002(3) -0.001(2)
C30 0.038(3) 0.051(3) 0.038(3) 0.010(2) 0.000(3) 0.004(3)
C31 0.041(4) 0.053(4) 0.039(3) 0.005(3) 0.007(3) -0.007(3)
C32 0.037(3) 0.053(3) 0.049(4) 0.008(3) -0.006(3) 0.002(3)
C33 0.033(4) 0.087(4) 0.059(4) 0.017(3) 0.001(3) 0.008(3)
C34 0.045(4) 0.088(5) 0.066(4) 0.025(3) -0.001(3) 0.012(3)
C35 0.033(3) 0.063(4) 0.061(4) 0.004(3) 0.007(3) -0.003(3)
C36 0.030(3) 0.085(4) 0.069(4) 0.017(4) 0.001(3) 0.010(3)
C37 0.044(4) 0.074(4) 0.052(4) 0.019(3) -0.002(3) 0.004(3)
N22 0.033(3) 0.103(4) 0.082(4) 0.028(3) 0.012(3) 0.011(3)
C38 0.054(5) 0.160(7) 0.113(6) 0.066(5) 0.032(4) 0.013(4)
C39 0.046(4) 0.129(6) 0.114(6) 0.027(5) 0.006(4) 0.020(4)
N41 0.034(3) 0.043(2) 0.032(2) 0.0050(19) -0.0017(19) -0.002(2)
B41 0.041(4) 0.052(4) 0.040(4) -0.002(3) 0.011(3) 0.002(3)
F41 0.048(2) 0.073(2) 0.075(2) 0.0322(18) 0.0108(16) 0.0001(16)
F42 0.058(2) 0.093(2) 0.057(2) -0.0145(18) 0.0192(16) 0.0007(18)
O41 0.032(2) 0.091(3) 0.047(2) 0.024(2) 0.0056(17) -0.0044(19)
C41 0.040(3) 0.048(3) 0.039(3) 0.002(2) -0.003(3) 0.002(3)
C42 0.033(3) 0.047(3) 0.046(3) -0.007(3) -0.003(2) -0.004(2)
C43 0.038(3) 0.041(3) 0.035(3) -0.002(2) 0.003(3) 0.001(2)
C44 0.039(4) 0.065(4) 0.044(3) -0.003(3) 0.000(3) 0.006(3)
C45 0.031(3) 0.074(4) 0.062(4) -0.008(3) 0.020(3) 0.000(3)
C46 0.047(4) 0.057(4) 0.048(3) -0.001(3) 0.016(3) -0.011(3)
C47 0.041(3) 0.054(3) 0.038(3) -0.003(3) 0.001(3) 0.004(3)
C48 0.034(3) 0.033(3) 0.041(3) -0.004(2) 0.006(2) 0.000(2)
C49 0.032(3) 0.038(3) 0.033(3) -0.002(2) 0.001(2) -0.001(2)
C50 0.040(3) 0.045(3) 0.035(3) 0.008(2) 0.001(2) -0.003(3)
C51 0.036(3) 0.044(3) 0.042(3) 0.006(3) 0.005(3) 0.001(2)
C52 0.033(3) 0.052(3) 0.043(3) 0.009(3) 0.000(2) -0.001(3)
C53 0.037(3) 0.067(4) 0.061(4) 0.016(3) 0.007(3) -0.005(3)
C54 0.032(4) 0.083(4) 0.062(4) 0.027(3) -0.001(3) -0.002(3)
C55 0.026(3) 0.065(4) 0.063(4) -0.001(3) -0.003(3) 0.002(3)
C56 0.036(4) 0.078(4) 0.071(4) 0.018(3) 0.007(3) -0.005(3)
C57 0.036(3) 0.081(4) 0.056(4) 0.019(3) 0.002(3) -0.005(3)
N42 0.031(3) 0.095(4) 0.082(4) 0.030(3) -0.001(3) -0.005(3)
C58 0.048(4) 0.163(7) 0.108(6) 0.063(5) -0.014(4) 0.009(4)
C59 0.034(4) 0.116(6) 0.120(6) 0.028(4) -0.007(4) -0.006(4)

_geom_special_details            
;
 All esds (except the esd in the dihedral angle between two l.s. planes)
 are estimated using the full covariance matrix.  The cell esds are taken
 into account individually in the estimation of esds in distances, angles
 and torsion angles; correlations between esds in cell parameters are only
 used when they are defined by crystal symmetry.  An approximate (isotropic)
 treatment of cell esds is used for estimating esds involving l.s. planes.
;

loop_
_geom_bond_atom_site_label_1
_geom_bond_atom_site_label_2
_geom_bond_distance
_geom_bond_site_symmetry_2
_geom_bond_publ_flag
O1 C11 1.339(5) . ?
O1 B1 1.456(6) . ?
B1 F2 1.373(6) . ?
B1 F1 1.376(7) . ?
B1 N1 1.573(6) . ?
N1 C9 1.360(5) . ?
N1 C1 1.377(5) . ?
C1 C2 1.338(6) . ?
C1 H1A 0.9300 . ?
C2 C3 1.404(6) . ?
C2 H2A 0.9300 . ?
C3 C4 1.406(6) . ?
C3 C8 1.411(6) . ?
C4 C5 1.348(6) . ?
C4 H4A 0.9300 . ?
C5 C6 1.396(6) . ?
C5 H5A 0.9300 . ?
C6 C7 1.367(6) . ?
C6 H6A 0.9300 . ?
C7 C8 1.390(6) . ?
C7 H7A 0.9300 . ?
C8 C9 1.434(6) . ?
C9 C10 1.408(6) . ?
C10 C11 1.361(6) . ?
C10 H10A 0.9300 . ?
C11 C12 1.462(6) . ?
C12 C17 1.388(6) . ?
C12 C13 1.391(6) . ?
C13 C14 1.374(6) . ?
C13 H13A 0.9300 . ?
C14 C15 1.420(6) . ?
C14 H14A 0.9300 . ?
C15 N2 1.367(6) . ?
C15 C16 1.391(6) . ?
C16 C17 1.374(6) . ?
C16 H16A 0.9300 . ?
C17 H17A 0.9300 . ?
N2 C18 1.442(6) . ?
N2 C19 1.462(6) . ?
C18 H18A 0.9600 . ?
C18 H18B 0.9600 . ?
C18 H18C 0.9600 . ?
C19 H19A 0.9600 . ?
C19 H19B 0.9600 . ?
C19 H19C 0.9600 . ?
N21 C29 1.343(5) . ?
N21 C21 1.376(5) . ?
N21 B21 1.573(6) . ?
B21 F21 1.355(6) . ?
B21 F22 1.378(7) . ?
B21 O21 1.435(6) . ?
O21 C31 1.331(5) . ?
C21 C22 1.325(6) . ?
C21 H21A 0.9300 . ?
C22 C23 1.416(6) . ?
C22 H22A 0.9300 . ?
C23 C28 1.412(6) . ?
C23 C24 1.427(6) . ?
C24 C25 1.351(6) . ?
C24 H24A 0.9300 . ?
C25 C26 1.393(6) . ?
C25 H25A 0.9300 . ?
C26 C27 1.368(6) . ?
C26 H26A 0.9300 . ?
C27 C28 1.404(6) . ?
C27 H27A 0.9300 . ?
C28 C29 1.434(6) . ?
C29 C30 1.424(6) . ?
C30 C31 1.351(6) . ?
C30 H30A 0.9300 . ?
C31 C32 1.461(6) . ?
C32 C33 1.380(6) . ?
C32 C37 1.394(6) . ?
C33 C34 1.379(6) . ?
C33 H33A 0.9300 . ?
C34 C35 1.403(6) . ?
C34 H34A 0.9300 . ?
C35 N22 1.378(6) . ?
C35 C36 1.379(6) . ?
C36 C37 1.378(6) . ?
C36 H36A 0.9300 . ?
C37 H37A 0.9300 . ?
N22 C38 1.423(6) . ?
N22 C39 1.429(6) . ?
C38 H38A 0.9600 . ?
C38 H38B 0.9600 . ?
C38 H38C 0.9600 . ?
C39 H39A 0.9600 . ?
C39 H39B 0.9600 . ?
C39 H39C 0.9600 . ?
N41 C49 1.347(5) . ?
N41 C41 1.379(5) . ?
N41 B41 1.562(6) . ?
B41 F41 1.369(6) . ?
B41 F42 1.380(6) . ?
B41 O41 1.438(6) . ?
O41 C51 1.326(5) . ?
C41 C42 1.343(6) . ?
C41 H41A 0.9300 . ?
C42 C43 1.405(6) . ?
C42 H42A 0.9300 . ?
C43 C48 1.409(6) . ?
C43 C44 1.414(6) . ?
C44 C45 1.351(6) . ?
C44 H44A 0.9300 . ?
C45 C46 1.390(6) . ?
C45 H45A 0.9300 . ?
C46 C47 1.369(6) . ?
C46 H46A 0.9300 . ?
C47 C48 1.412(6) . ?
C47 H47A 0.9300 . ?
C48 C49 1.445(6) . ?
C49 C50 1.419(6) . ?
C50 C51 1.366(6) . ?
C50 H50A 0.9300 . ?
C51 C52 1.459(6) . ?
C52 C53 1.383(6) . ?
C52 C57 1.390(6) . ?
C53 C54 1.384(6) . ?
C53 H53A 0.9300 . ?
C54 C55 1.397(6) . ?
C54 H54A 0.9300 . ?
C55 N42 1.381(6) . ?
C55 C56 1.401(6) . ?
C56 C57 1.359(6) . ?
C56 H56A 0.9300 . ?
C57 H57A 0.9300 . ?
N42 C58 1.431(6) . ?
N42 C59 1.443(6) . ?
C58 H58A 0.9600 . ?
C58 H58B 0.9600 . ?
C58 H58C 0.9600 . ?
C59 H59A 0.9600 . ?
C59 H59B 0.9600 . ?
C59 H59C 0.9600 . ?

loop_
_geom_angle_atom_site_label_1
_geom_angle_atom_site_label_2
_geom_angle_atom_site_label_3
_geom_angle
_geom_angle_site_symmetry_1
_geom_angle_site_symmetry_3
_geom_angle_publ_flag
C11 O1 B1 121.2(4) . . ?
F2 B1 F1 110.2(5) . . ?
F2 B1 O1 109.3(5) . . ?
F1 B1 O1 110.4(5) . . ?
F2 B1 N1 109.5(5) . . ?
F1 B1 N1 107.6(4) . . ?
O1 B1 N1 109.8(4) . . ?
C9 N1 C1 120.7(4) . . ?
C9 N1 B1 120.9(4) . . ?
C1 N1 B1 118.2(4) . . ?
C2 C1 N1 122.6(5) . . ?
C2 C1 H1A 118.7 . . ?
N1 C1 H1A 118.7 . . ?
C1 C2 C3 119.6(5) . . ?
C1 C2 H2A 120.2 . . ?
C3 C2 H2A 120.2 . . ?
C2 C3 C4 122.0(5) . . ?
C2 C3 C8 119.3(4) . . ?
C4 C3 C8 118.7(5) . . ?
C5 C4 C3 121.1(5) . . ?
C5 C4 H4A 119.5 . . ?
C3 C4 H4A 119.5 . . ?
C4 C5 C6 120.0(5) . . ?
C4 C5 H5A 120.0 . . ?
C6 C5 H5A 120.0 . . ?
C7 C6 C5 120.6(5) . . ?
C7 C6 H6A 119.7 . . ?
C5 C6 H6A 119.7 . . ?
C6 C7 C8 120.3(5) . . ?
C6 C7 H7A 119.8 . . ?
C8 C7 H7A 119.8 . . ?
C7 C8 C3 119.3(4) . . ?
C7 C8 C9 121.8(4) . . ?
C3 C8 C9 118.9(4) . . ?
N1 C9 C10 117.3(4) . . ?
N1 C9 C8 118.9(4) . . ?
C10 C9 C8 123.7(4) . . ?
C11 C10 C9 123.0(5) . . ?
C11 C10 H10A 118.5 . . ?
C9 C10 H10A 118.5 . . ?
O1 C11 C10 121.3(4) . . ?
O1 C11 C12 114.3(4) . . ?
C10 C11 C12 124.4(5) . . ?
C17 C12 C13 115.7(5) . . ?
C17 C12 C11 122.8(5) . . ?
C13 C12 C11 121.5(4) . . ?
C14 C13 C12 123.0(5) . . ?
C14 C13 H13A 118.5 . . ?
C12 C13 H13A 118.5 . . ?
C13 C14 C15 120.6(5) . . ?
C13 C14 H14A 119.7 . . ?
C15 C14 H14A 119.7 . . ?
N2 C15 C16 122.7(5) . . ?
N2 C15 C14 121.1(5) . . ?
C16 C15 C14 116.2(5) . . ?
C17 C16 C15 121.7(5) . . ?
C17 C16 H16A 119.1 . . ?
C15 C16 H16A 119.1 . . ?
C16 C17 C12 122.7(5) . . ?
C16 C17 H17A 118.7 . . ?
C12 C17 H17A 118.7 . . ?
C15 N2 C18 121.5(5) . . ?
C15 N2 C19 119.7(5) . . ?
C18 N2 C19 118.6(5) . . ?
N2 C18 H18A 109.5 . . ?
N2 C18 H18B 109.5 . . ?
H18A C18 H18B 109.5 . . ?
N2 C18 H18C 109.5 . . ?
H18A C18 H18C 109.5 . . ?
H18B C18 H18C 109.5 . . ?
N2 C19 H19A 109.5 . . ?
N2 C19 H19B 109.5 . . ?
H19A C19 H19B 109.5 . . ?
N2 C19 H19C 109.5 . . ?
H19A C19 H19C 109.5 . . ?
H19B C19 H19C 109.5 . . ?
C29 N21 C21 120.0(4) . . ?
C29 N21 B21 121.3(4) . . ?
C21 N21 B21 118.5(4) . . ?
F21 B21 F22 110.1(5) . . ?
F21 B21 O21 109.2(5) . . ?
F22 B21 O21 111.0(5) . . ?
F21 B21 N21 109.9(5) . . ?
F22 B21 N21 107.0(4) . . ?
O21 B21 N21 109.6(4) . . ?
C31 O21 B21 122.9(4) . . ?
C22 C21 N21 123.3(5) . . ?
C22 C21 H21A 118.3 . . ?
N21 C21 H21A 118.3 . . ?
C21 C22 C23 119.3(4) . . ?
C21 C22 H22A 120.4 . . ?
C23 C22 H22A 120.4 . . ?
C28 C23 C22 119.2(4) . . ?
C28 C23 C24 118.7(5) . . ?
C22 C23 C24 122.0(5) . . ?
C25 C24 C23 120.3(5) . . ?
C25 C24 H24A 119.9 . . ?
C23 C24 H24A 119.9 . . ?
C24 C25 C26 120.9(5) . . ?
C24 C25 H25A 119.6 . . ?
C26 C25 H25A 119.6 . . ?
C27 C26 C25 120.5(5) . . ?
C27 C26 H26A 119.7 . . ?
C25 C26 H26A 119.7 . . ?
C26 C27 C28 120.5(5) . . ?
C26 C27 H27A 119.8 . . ?
C28 C27 H27A 119.8 . . ?
C27 C28 C23 119.1(4) . . ?
C27 C28 C29 123.0(4) . . ?
C23 C28 C29 117.9(4) . . ?
N21 C29 C30 117.3(4) . . ?
N21 C29 C28 120.3(4) . . ?
C30 C29 C28 122.4(4) . . ?
C31 C30 C29 122.5(4) . . ?
C31 C30 H30A 118.7 . . ?
C29 C30 H30A 118.7 . . ?
O21 C31 C30 121.1(4) . . ?
O21 C31 C32 113.8(4) . . ?
C30 C31 C32 125.0(5) . . ?
C33 C32 C37 116.5(5) . . ?
C33 C32 C31 122.3(5) . . ?
C37 C32 C31 121.3(5) . . ?
C34 C33 C32 122.3(5) . . ?
C34 C33 H33A 118.8 . . ?
C32 C33 H33A 118.8 . . ?
C33 C34 C35 120.9(5) . . ?
C33 C34 H34A 119.5 . . ?
C35 C34 H34A 119.5 . . ?
N22 C35 C36 121.6(5) . . ?
N22 C35 C34 121.6(5) . . ?
C36 C35 C34 116.8(5) . . ?
C37 C36 C35 121.8(5) . . ?
C37 C36 H36A 119.1 . . ?
C35 C36 H36A 119.1 . . ?
C36 C37 C32 121.7(5) . . ?
C36 C37 H37A 119.2 . . ?
C32 C37 H37A 119.2 . . ?
C35 N22 C38 122.1(5) . . ?
C35 N22 C39 121.5(5) . . ?
C38 N22 C39 116.3(5) . . ?
N22 C38 H38A 109.5 . . ?
N22 C38 H38B 109.5 . . ?
H38A C38 H38B 109.5 . . ?
N22 C38 H38C 109.5 . . ?
H38A C38 H38C 109.5 . . ?
H38B C38 H38C 109.5 . . ?
N22 C39 H39A 109.5 . . ?
N22 C39 H39B 109.5 . . ?
H39A C39 H39B 109.5 . . ?
N22 C39 H39C 109.5 . . ?
H39A C39 H39C 109.5 . . ?
H39B C39 H39C 109.5 . . ?
C49 N41 C41 120.7(4) . . ?
C49 N41 B41 121.3(4) . . ?
C41 N41 B41 117.7(4) . . ?
F41 B41 F42 109.5(5) . . ?
F41 B41 O41 109.6(5) . . ?
F42 B41 O41 110.2(5) . . ?
F41 B41 N41 109.7(4) . . ?
F42 B41 N41 107.0(4) . . ?
O41 B41 N41 110.8(4) . . ?
C51 O41 B41 123.3(4) . . ?
C42 C41 N41 122.3(4) . . ?
C42 C41 H41A 118.9 . . ?
N41 C41 H41A 118.9 . . ?
C41 C42 C43 120.0(5) . . ?
C41 C42 H42A 120.0 . . ?
C43 C42 H42A 120.0 . . ?
C42 C43 C48 119.0(4) . . ?
C42 C43 C44 121.8(5) . . ?
C48 C43 C44 119.2(4) . . ?
C45 C44 C43 120.8(5) . . ?
C45 C44 H44A 119.6 . . ?
C43 C44 H44A 119.6 . . ?
C44 C45 C46 120.1(5) . . ?
C44 C45 H45A 120.0 . . ?
C46 C45 H45A 120.0 . . ?
C47 C46 C45 121.4(5) . . ?
C47 C46 H46A 119.3 . . ?
C45 C46 H46A 119.3 . . ?
C46 C47 C48 119.8(5) . . ?
C46 C47 H47A 120.1 . . ?
C48 C47 H47A 120.1 . . ?
C43 C48 C47 118.8(4) . . ?
C43 C48 C49 118.7(4) . . ?
C47 C48 C49 122.5(4) . . ?
N41 C49 C50 117.7(4) . . ?
N41 C49 C48 119.3(4) . . ?
C50 C49 C48 123.0(4) . . ?
C51 C50 C49 122.7(4) . . ?
C51 C50 H50A 118.6 . . ?
C49 C50 H50A 118.6 . . ?
O41 C51 C50 120.6(4) . . ?
O41 C51 C52 115.1(4) . . ?
C50 C51 C52 124.3(4) . . ?
C53 C52 C57 117.1(5) . . ?
C53 C52 C51 122.6(5) . . ?
C57 C52 C51 120.2(4) . . ?
C52 C53 C54 122.1(5) . . ?
C52 C53 H53A 118.9 . . ?
C54 C53 H53A 118.9 . . ?
C53 C54 C55 120.0(5) . . ?
C53 C54 H54A 120.0 . . ?
C55 C54 H54A 120.0 . . ?
N42 C55 C54 120.7(5) . . ?
N42 C55 C56 121.6(5) . . ?
C54 C55 C56 117.7(5) . . ?
C57 C56 C55 121.1(5) . . ?
C57 C56 H56A 119.5 . . ?
C55 C56 H56A 119.5 . . ?
C56 C57 C52 122.0(5) . . ?
C56 C57 H57A 119.0 . . ?
C52 C57 H57A 119.0 . . ?
C55 N42 C58 121.2(5) . . ?
C55 N42 C59 120.6(5) . . ?
C58 N42 C59 117.9(5) . . ?
N42 C58 H58A 109.5 . . ?
N42 C58 H58B 109.5 . . ?
H58A C58 H58B 109.5 . . ?
N42 C58 H58C 109.5 . . ?
H58A C58 H58C 109.5 . . ?
H58B C58 H58C 109.5 . . ?
N42 C59 H59A 109.5 . . ?
N42 C59 H59B 109.5 . . ?
H59A C59 H59B 109.5 . . ?
N42 C59 H59C 109.5 . . ?
H59A C59 H59C 109.5 . . ?
H59B C59 H59C 109.5 . . ?

loop_
_geom_torsion_atom_site_label_1
_geom_torsion_atom_site_label_2
_geom_torsion_atom_site_label_3
_geom_torsion_atom_site_label_4
_geom_torsion
_geom_torsion_site_symmetry_1
_geom_torsion_site_symmetry_2
_geom_torsion_site_symmetry_3
_geom_torsion_site_symmetry_4
_geom_torsion_publ_flag
C11 O1 B1 F2 148.7(4) . . . . ?
C11 O1 B1 F1 -89.9(5) . . . . ?
C11 O1 B1 N1 28.6(7) . . . . ?
F2 B1 N1 C9 -144.9(4) . . . . ?
F1 B1 N1 C9 95.3(5) . . . . ?
O1 B1 N1 C9 -24.9(6) . . . . ?
F2 B1 N1 C1 40.4(6) . . . . ?
F1 B1 N1 C1 -79.4(6) . . . . ?
O1 B1 N1 C1 160.4(4) . . . . ?
C9 N1 C1 C2 -0.4(7) . . . . ?
B1 N1 C1 C2 174.3(5) . . . . ?
N1 C1 C2 C3 0.1(7) . . . . ?
C1 C2 C3 C4 -180.0(5) . . . . ?
C1 C2 C3 C8 -0.3(7) . . . . ?
C2 C3 C4 C5 -179.9(5) . . . . ?
C8 C3 C4 C5 0.4(7) . . . . ?
C3 C4 C5 C6 -1.0(8) . . . . ?
C4 C5 C6 C7 1.2(8) . . . . ?
C5 C6 C7 C8 -0.9(7) . . . . ?
C6 C7 C8 C3 0.4(7) . . . . ?
C6 C7 C8 C9 179.7(4) . . . . ?
C2 C3 C8 C7 -179.8(4) . . . . ?
C4 C3 C8 C7 -0.1(6) . . . . ?
C2 C3 C8 C9 0.8(6) . . . . ?
C4 C3 C8 C9 -179.5(4) . . . . ?
C1 N1 C9 C10 -177.3(4) . . . . ?
B1 N1 C9 C10 8.1(6) . . . . ?
C1 N1 C9 C8 0.9(6) . . . . ?
B1 N1 C9 C8 -173.6(4) . . . . ?
C7 C8 C9 N1 179.5(4) . . . . ?
C3 C8 C9 N1 -1.1(6) . . . . ?
C7 C8 C9 C10 -2.4(7) . . . . ?
C3 C8 C9 C10 177.0(4) . . . . ?
N1 C9 C10 C11 7.8(7) . . . . ?
C8 C9 C10 C11 -170.3(4) . . . . ?
B1 O1 C11 C10 -16.1(7) . . . . ?
B1 O1 C11 C12 165.1(4) . . . . ?
C9 C10 C11 O1 -4.5(7) . . . . ?
C9 C10 C11 C12 174.2(4) . . . . ?
O1 C11 C12 C17 -20.6(7) . . . . ?
C10 C11 C12 C17 160.7(5) . . . . ?
O1 C11 C12 C13 159.6(4) . . . . ?
C10 C11 C12 C13 -19.2(8) . . . . ?
C17 C12 C13 C14 -2.2(7) . . . . ?
C11 C12 C13 C14 177.7(5) . . . . ?
C12 C13 C14 C15 -0.5(8) . . . . ?
C13 C14 C15 N2 -176.1(5) . . . . ?
C13 C14 C15 C16 2.2(8) . . . . ?
N2 C15 C16 C17 177.1(5) . . . . ?
C14 C15 C16 C17 -1.2(8) . . . . ?
C15 C16 C17 C12 -1.6(9) . . . . ?
C13 C12 C17 C16 3.2(8) . . . . ?
C11 C12 C17 C16 -176.7(5) . . . . ?
C16 C15 N2 C18 175.8(5) . . . . ?
C14 C15 N2 C18 -6.0(8) . . . . ?
C16 C15 N2 C19 2.3(8) . . . . ?
C14 C15 N2 C19 -179.5(5) . . . . ?
C29 N21 B21 F21 -144.0(4) . . . . ?
C21 N21 B21 F21 41.4(6) . . . . ?
C29 N21 B21 F22 96.4(5) . . . . ?
C21 N21 B21 F22 -78.1(5) . . . . ?
C29 N21 B21 O21 -24.0(7) . . . . ?
C21 N21 B21 O21 161.5(4) . . . . ?
F21 B21 O21 C31 146.2(4) . . . . ?
F22 B21 O21 C31 -92.2(6) . . . . ?
N21 B21 O21 C31 25.7(7) . . . . ?
C29 N21 C21 C22 -0.7(7) . . . . ?
B21 N21 C21 C22 173.9(5) . . . . ?
N21 C21 C22 C23 -0.2(7) . . . . ?
C21 C22 C23 C28 -0.3(7) . . . . ?
C21 C22 C23 C24 179.9(5) . . . . ?
C28 C23 C24 C25 -0.1(7) . . . . ?
C22 C23 C24 C25 179.7(5) . . . . ?
C23 C24 C25 C26 -0.2(8) . . . . ?
C24 C25 C26 C27 0.8(8) . . . . ?
C25 C26 C27 C28 -1.0(7) . . . . ?
C26 C27 C28 C23 0.6(7) . . . . ?
C26 C27 C28 C29 179.1(4) . . . . ?
C22 C23 C28 C27 -179.9(4) . . . . ?
C24 C23 C28 C27 -0.1(6) . . . . ?
C22 C23 C28 C29 1.6(6) . . . . ?
C24 C23 C28 C29 -178.6(4) . . . . ?
C21 N21 C29 C30 -175.9(4) . . . . ?
B21 N21 C29 C30 9.6(6) . . . . ?
C21 N21 C29 C28 2.0(6) . . . . ?
B21 N21 C29 C28 -172.4(4) . . . . ?
C27 C28 C29 N21 179.0(4) . . . . ?
C23 C28 C29 N21 -2.5(6) . . . . ?
C27 C28 C29 C30 -3.1(7) . . . . ?
C23 C28 C29 C30 175.4(4) . . . . ?
N21 C29 C30 C31 5.9(7) . . . . ?
C28 C29 C30 C31 -172.1(4) . . . . ?
B21 O21 C31 C30 -13.4(7) . . . . ?
B21 O21 C31 C32 170.3(5) . . . . ?
C29 C30 C31 O21 -4.8(8) . . . . ?
C29 C30 C31 C32 171.0(4) . . . . ?
O21 C31 C32 C33 -173.2(5) . . . . ?
C30 C31 C32 C33 10.6(8) . . . . ?
O21 C31 C32 C37 8.2(7) . . . . ?
C30 C31 C32 C37 -168.0(5) . . . . ?
C37 C32 C33 C34 -0.6(8) . . . . ?
C31 C32 C33 C34 -179.3(5) . . . . ?
C32 C33 C34 C35 1.3(9) . . . . ?
C33 C34 C35 N22 178.4(5) . . . . ?
C33 C34 C35 C36 -1.0(8) . . . . ?
N22 C35 C36 C37 -179.4(5) . . . . ?
C34 C35 C36 C37 0.0(8) . . . . ?
C35 C36 C37 C32 0.7(9) . . . . ?
C33 C32 C37 C36 -0.4(8) . . . . ?
C31 C32 C37 C36 178.3(5) . . . . ?
C36 C35 N22 C38 -176.1(6) . . . . ?
C34 C35 N22 C38 4.6(9) . . . . ?
C36 C35 N22 C39 -1.4(9) . . . . ?
C34 C35 N22 C39 179.3(6) . . . . ?
C49 N41 B41 F41 140.0(4) . . . . ?
C41 N41 B41 F41 -45.5(6) . . . . ?
C49 N41 B41 F42 -101.2(5) . . . . ?
C41 N41 B41 F42 73.2(5) . . . . ?
C49 N41 B41 O41 18.9(6) . . . . ?
C41 N41 B41 O41 -166.6(4) . . . . ?
F41 B41 O41 C51 -143.1(4) . . . . ?
F42 B41 O41 C51 96.3(5) . . . . ?
N41 B41 O41 C51 -21.9(7) . . . . ?
C49 N41 C41 C42 1.8(7) . . . . ?
B41 N41 C41 C42 -172.6(4) . . . . ?
N41 C41 C42 C43 -0.6(7) . . . . ?
C41 C42 C43 C48 -1.0(7) . . . . ?
C41 C42 C43 C44 179.4(4) . . . . ?
C42 C43 C44 C45 179.2(5) . . . . ?
C48 C43 C44 C45 -0.4(7) . . . . ?
C43 C44 C45 C46 0.7(8) . . . . ?
C44 C45 C46 C47 -0.3(8) . . . . ?
C45 C46 C47 C48 -0.5(7) . . . . ?
C42 C43 C48 C47 -179.9(4) . . . . ?
C44 C43 C48 C47 -0.3(7) . . . . ?
C42 C43 C48 C49 1.5(6) . . . . ?
C44 C43 C48 C49 -178.8(4) . . . . ?
C46 C47 C48 C43 0.8(7) . . . . ?
C46 C47 C48 C49 179.3(4) . . . . ?
C41 N41 C49 C50 178.3(4) . . . . ?
B41 N41 C49 C50 -7.5(6) . . . . ?
C41 N41 C49 C48 -1.2(6) . . . . ?
B41 N41 C49 C48 173.0(4) . . . . ?
C43 C48 C49 N41 -0.4(6) . . . . ?
C47 C48 C49 N41 -178.9(4) . . . . ?
C43 C48 C49 C50 -179.9(4) . . . . ?
C47 C48 C49 C50 1.6(7) . . . . ?
N41 C49 C50 C51 -3.3(7) . . . . ?
C48 C49 C50 C51 176.2(4) . . . . ?
B41 O41 C51 C50 13.5(7) . . . . ?
B41 O41 C51 C52 -168.0(4) . . . . ?
C49 C50 C51 O41 0.9(7) . . . . ?
C49 C50 C51 C52 -177.5(4) . . . . ?
O41 C51 C52 C53 168.5(5) . . . . ?
C50 C51 C52 C53 -13.0(8) . . . . ?
O41 C51 C52 C57 -11.7(7) . . . . ?
C50 C51 C52 C57 166.7(5) . . . . ?
C57 C52 C53 C54 0.8(8) . . . . ?
C51 C52 C53 C54 -179.4(5) . . . . ?
C52 C53 C54 C55 -2.3(8) . . . . ?
C53 C54 C55 N42 -177.6(5) . . . . ?
C53 C54 C55 C56 2.2(8) . . . . ?
N42 C55 C56 C57 179.0(5) . . . . ?
C54 C55 C56 C57 -0.8(8) . . . . ?
C55 C56 C57 C52 -0.6(9) . . . . ?
C53 C52 C57 C56 0.6(8) . . . . ?
C51 C52 C57 C56 -179.1(5) . . . . ?
C54 C55 N42 C58 -1.8(8) . . . . ?
C56 C55 N42 C58 178.3(5) . . . . ?
C54 C55 N42 C59 -175.4(5) . . . . ?
C56 C55 N42 C59 4.7(8) . . . . ?

_refine_diff_density_max         0.250
_refine_diff_density_min         -0.233
_refine_diff_density_rms         0.052

_shelx_res_file                  
;
TITL e1444a_a.res in Pbca
    e1444a_a.res
    created by SHELXL-2017/1 at 20:46:51 on 06-Jun-2019
REM Old TITL e1444a in Pbca

REM SHELXT solution in Pbca
REM R1 0.336,  Rweak 0.110,  Alpha 0.124,  Orientation as input
REM Formula found by SHELXT:  C63 N3 O7 F2

CELL  0.71073  30.6090   7.2702  44.5563   90.000   90.000   90.000
ZERR   24.000   0.0018   0.0005   0.0022    0.000    0.000    0.000
LATT  1
SYMM 1/2-X, -Y, 1/2+Z
SYMM -X, 1/2+Y, 1/2-Z
SYMM 1/2+X, 1/2-Y, -Z
SFAC C H B N O F
UNIT 456.00 408.00 24.00 48.00 24.00 48.00

SIZE  0.521 0.140 0.046
TEMP  20

L.S. 10
BOND $H
LIST 6
FMAP 2
PLAN 5

OMIT  -2 48

ACTA
CONF
HTAB

WGHT    0.061900
FVAR       0.10760
MOLE  1
O1    5    0.616296    0.900722    0.605869    11.00000    0.03384    0.07998 =
         0.04554   -0.00111    0.00315    0.01124
B1    3    0.650895    0.886326    0.628164    11.00000    0.04060    0.06789 =
         0.03819   -0.00475    0.00452    0.00723
F1    6    0.645484    0.730273    0.645224    11.00000    0.04707    0.11686 =
         0.06993    0.04096    0.00122   -0.00601
F2    6    0.650298    1.039638    0.646140    11.00000    0.06032    0.11827 =
         0.06883   -0.04519    0.00630    0.01466
N1    4    0.696483    0.871393    0.612067    11.00000    0.04168    0.04344 =
         0.03453    0.00153    0.00142    0.00099
C1    1    0.733400    0.912851    0.628384    11.00000    0.05294    0.05573 =
         0.03331   -0.00290   -0.01373   -0.00404
AFIX  43
H1A   2    0.730152    0.958761    0.647738    11.00000   -1.20000
AFIX   0
C2    1    0.773773    0.889666    0.617483    11.00000    0.03772    0.05924 =
         0.04697   -0.00470   -0.00717   -0.00568
AFIX  43
H2A   2    0.797967    0.919060    0.629163    11.00000   -1.20000
AFIX   0
C3    1    0.779363    0.820672    0.588298    11.00000    0.03179    0.04412 =
         0.03686    0.00596   -0.00241   -0.00031
C4    1    0.820979    0.793451    0.575714    11.00000    0.03079    0.06844 =
         0.05775    0.00562   -0.00449   -0.00439
AFIX  43
H4A   2    0.845703    0.821559    0.586946    11.00000   -1.20000
AFIX   0
C5    1    0.825638    0.727297    0.547643    11.00000    0.03120    0.07366 =
         0.06749    0.00770    0.01420   -0.00080
AFIX  43
H5A   2    0.853394    0.711820    0.539537    11.00000   -1.20000
AFIX   0
C6    1    0.788788    0.682024    0.530741    11.00000    0.04677    0.05165 =
         0.04688   -0.00070    0.00581    0.00206
AFIX  43
H6A   2    0.792169    0.634224    0.511521    11.00000   -1.20000
AFIX   0
C7    1    0.747771    0.707250    0.542161    11.00000    0.03221    0.04955 =
         0.04572   -0.00549    0.00341    0.00139
AFIX  43
H7A   2    0.723461    0.678189    0.530573    11.00000   -1.20000
AFIX   0
C8    1    0.742232    0.776109    0.571003    11.00000    0.02645    0.03579 =
         0.03770    0.00533    0.00091    0.00173
C9    1    0.699688    0.804972    0.583626    11.00000    0.03129    0.03768 =
         0.04159    0.00380   -0.00403    0.00308
C10   1    0.660472    0.773386    0.567930    11.00000    0.03006    0.05449 =
         0.04461   -0.00660    0.00676    0.00948
AFIX  43
H10A  2    0.661813    0.714027    0.549464    11.00000   -1.20000
AFIX   0
C11   1    0.620684    0.825826    0.578568    11.00000    0.03936    0.04792 =
         0.03796    0.00381   -0.00439   -0.00228
C12   1    0.579854    0.810446    0.561711    11.00000    0.03288    0.06138 =
         0.03790    0.00108    0.00051    0.00907
C13   1    0.579626    0.791605    0.530634    11.00000    0.02570    0.07481 =
         0.05244   -0.00068   -0.00133    0.00219
AFIX  43
H13A  2    0.606188    0.793398    0.520504    11.00000   -1.20000
AFIX   0
C14   1    0.541958    0.770476    0.514233    11.00000    0.03650    0.08058 =
         0.05014    0.00223    0.00257    0.00078
AFIX  43
H14A  2    0.543539    0.759360    0.493468    11.00000   -1.20000
AFIX   0
C15   1    0.500617    0.765446    0.528691    11.00000    0.03976    0.06014 =
         0.05487    0.00839   -0.00282   -0.00028
C16   1    0.500890    0.789453    0.559671    11.00000    0.02359    0.09108 =
         0.06423    0.01192    0.00971    0.00489
AFIX  43
H16A  2    0.474507    0.789474    0.570023    11.00000   -1.20000
AFIX   0
C17   1    0.539106    0.813125    0.575369    11.00000    0.04009    0.08211 =
         0.05080    0.00753    0.00788    0.01157
AFIX  43
H17A  2    0.537612    0.831709    0.595994    11.00000   -1.20000
AFIX   0
N2    4    0.463143    0.733771    0.512806    11.00000    0.03711    0.09296 =
         0.06897   -0.00088   -0.00859   -0.00322
C18   1    0.463426    0.721758    0.480506    11.00000    0.05804    0.08707 =
         0.08913   -0.00017   -0.02000   -0.00095
AFIX  33
H18A  2    0.434302    0.699126    0.473415    11.00000   -1.50000
H18B  2    0.473976    0.835293    0.472230    11.00000   -1.50000
H18C  2    0.482187    0.622855    0.474368    11.00000   -1.50000
AFIX   0
C19   1    0.421119    0.731096    0.528376    11.00000    0.02771    0.14387 =
         0.11267    0.01263   -0.00378   -0.00986
AFIX  33
H19A  2    0.398191    0.707326    0.514195    11.00000   -1.50000
H19B  2    0.421340    0.636184    0.543355    11.00000   -1.50000
H19C  2    0.416223    0.848023    0.537806    11.00000   -1.50000
AFIX   0
MOLE  2
N21   4    0.797726    0.385256    0.779972    11.00000    0.03300    0.04650 =
         0.03710    0.00725    0.00209    0.00080
B21   3    0.841283    0.367598    0.798470    11.00000    0.03661    0.06706 =
         0.03329    0.01169   -0.00057    0.00252
F21   6    0.840523    0.211751    0.815147    11.00000    0.05143    0.10777 =
         0.08686    0.05798   -0.00369    0.00063
F22   6    0.843690    0.519454    0.816920    11.00000    0.06996    0.12328 =
         0.06672   -0.02945   -0.01560    0.00207
O21   5    0.877791    0.361068    0.778303    11.00000    0.03784    0.09096 =
         0.04824    0.02141   -0.00046    0.00264
C21   1    0.758951    0.340905    0.793798    11.00000    0.05122    0.04438 =
         0.03693    0.00188    0.00753    0.00174
AFIX  43
H21A  2    0.759965    0.290728    0.812985    11.00000   -1.20000
AFIX   0
C22   1    0.720227    0.366076    0.781156    11.00000    0.02945    0.05925 =
         0.04721   -0.00204    0.00986   -0.00008
AFIX  43
H22A  2    0.694831    0.333728    0.791325    11.00000   -1.20000
AFIX   0
C23   1    0.717947    0.442809    0.751976    11.00000    0.03517    0.04548 =
         0.03784   -0.00231   -0.00142    0.00619
C24   1    0.677297    0.473246    0.737086    11.00000    0.02969    0.06366 =
         0.06450    0.00058    0.00624    0.00133
AFIX  43
H24A  2    0.651268    0.441742    0.746546    11.00000   -1.20000
AFIX   0
C25   1    0.676480    0.547609    0.709316    11.00000    0.03856    0.06155 =
         0.06256   -0.00104   -0.01228    0.00669
AFIX  43
H25A  2    0.649817    0.566415    0.699791    11.00000   -1.20000
AFIX   0
C26   1    0.715025    0.596518    0.694748    11.00000    0.04109    0.05513 =
         0.04767   -0.00649   -0.00566    0.00616
AFIX  43
H26A  2    0.713831    0.648969    0.675729    11.00000   -1.20000
AFIX   0
C27   1    0.754629    0.568005    0.708198    11.00000    0.03675    0.04965 =
         0.03091   -0.00109    0.00222   -0.00364
AFIX  43
H27A  2    0.780172    0.599464    0.698129    11.00000   -1.20000
AFIX   0
C28   1    0.756993    0.491627    0.737082    11.00000    0.03541    0.03997 =
         0.03220   -0.00334    0.00070   -0.00271
C29   1    0.797533    0.456153    0.752142    11.00000    0.03612    0.02872 =
         0.04026    0.00020   -0.00221   -0.00124
C30   1    0.838798    0.487729    0.738288    11.00000    0.03844    0.05133 =
         0.03821    0.00965    0.00010    0.00393
AFIX  43
H30A  2    0.839569    0.547152    0.719812    11.00000   -1.20000
AFIX   0
C31   1    0.876861    0.434634    0.750968    11.00000    0.04146    0.05341 =
         0.03870    0.00547    0.00684   -0.00668
C32   1    0.919435    0.439750    0.736185    11.00000    0.03691    0.05320 =
         0.04922    0.00827   -0.00551    0.00243
C33   1    0.925890    0.527699    0.709091    11.00000    0.03295    0.08692 =
         0.05915    0.01666    0.00074    0.00758
AFIX  43
H33A  2    0.902385    0.586845    0.700047    11.00000   -1.20000
AFIX   0
C34   1    0.965977    0.530950    0.694957    11.00000    0.04510    0.08765 =
         0.06603    0.02536   -0.00128    0.01198
AFIX  43
H34A  2    0.969056    0.593972    0.676917    11.00000   -1.20000
AFIX   0
C35   1    1.002160    0.440509    0.707421    11.00000    0.03283    0.06323 =
         0.06128    0.00438    0.00668   -0.00297
C36   1    0.995671    0.351862    0.734425    11.00000    0.03048    0.08541 =
         0.06932    0.01712    0.00064    0.01010
AFIX  43
H36A  2    1.018956    0.290402    0.743324    11.00000   -1.20000
AFIX   0
C37   1    0.955639    0.351830    0.748585    11.00000    0.04368    0.07408 =
         0.05198    0.01945   -0.00182    0.00429
AFIX  43
H37A  2    0.952714    0.291581    0.766888    11.00000   -1.20000
AFIX   0
N22   4    1.042169    0.438629    0.693229    11.00000    0.03252    0.10302 =
         0.08213    0.02817    0.01236    0.01148
C38   1    1.049988    0.538797    0.666323    11.00000    0.05393    0.15958 =
         0.11298    0.06565    0.03246    0.01343
AFIX  33
H38A  2    1.079633    0.519954    0.659996    11.00000   -1.50000
H38B  2    1.030456    0.496590    0.650936    11.00000   -1.50000
H38C  2    1.045151    0.667424    0.669884    11.00000   -1.50000
AFIX   0
C39   1    1.079072    0.348079    0.706153    11.00000    0.04571    0.12852 =
         0.11430    0.02700    0.00647    0.02009
AFIX  33
H39A  2    1.103829    0.361473    0.693107    11.00000   -1.50000
H39B  2    1.085560    0.402090    0.725302    11.00000   -1.50000
H39C  2    1.072624    0.219825    0.708734    11.00000   -1.50000
AFIX   0
MOLE  3
N41   4    0.705512   -0.258237    0.945876    11.00000    0.03437    0.04320 =
         0.03229    0.00503   -0.00169   -0.00248
B41   3    0.661600   -0.273601    0.963546    11.00000    0.04136    0.05216 =
         0.04028   -0.00213    0.01133    0.00180
F41   6    0.659929   -0.438606    0.978291    11.00000    0.04848    0.07333 =
         0.07490    0.03219    0.01082    0.00009
F42   6    0.661023   -0.131912    0.984167    11.00000    0.05794    0.09306 =
         0.05663   -0.01454    0.01921    0.00066
O41   5    0.624908   -0.258448    0.943553    11.00000    0.03236    0.09124 =
         0.04696    0.02357    0.00563   -0.00440
C41   1    0.743333   -0.308241    0.960568    11.00000    0.04025    0.04753 =
         0.03915    0.00160   -0.00327    0.00189
AFIX  43
H41A  2    0.741247   -0.362354    0.979427    11.00000   -1.20000
AFIX   0
C42   1    0.783098   -0.281473    0.948574    11.00000    0.03331    0.04685 =
         0.04593   -0.00692   -0.00330   -0.00432
AFIX  43
H42A  2    0.807957   -0.315737    0.959192    11.00000   -1.20000
AFIX   0
C43   1    0.787116   -0.201705    0.919987    11.00000    0.03805    0.04080 =
         0.03526   -0.00189    0.00259    0.00118
C44   1    0.828348   -0.169483    0.906676    11.00000    0.03865    0.06461 =
         0.04396   -0.00335    0.00031    0.00554
AFIX  43
H44A  2    0.853648   -0.200110    0.917097    11.00000   -1.20000
AFIX   0
C45   1    0.831421   -0.094756    0.879006    11.00000    0.03098    0.07414 =
         0.06233   -0.00831    0.01989    0.00033
AFIX  43
H45A  2    0.858722   -0.075523    0.870400    11.00000   -1.20000
AFIX   0
C46   1    0.793823   -0.046560    0.863376    11.00000    0.04670    0.05717 =
         0.04838   -0.00137    0.01640   -0.01072
AFIX  43
H46A  2    0.796338    0.005242    0.844370    11.00000   -1.20000
AFIX   0
C47   1    0.753155   -0.073790    0.875390    11.00000    0.04113    0.05352 =
         0.03776   -0.00337    0.00136    0.00422
AFIX  43
H47A  2    0.728385   -0.039749    0.864655    11.00000   -1.20000
AFIX   0
C48   1    0.748948   -0.153702    0.904123    11.00000    0.03415    0.03267 =
         0.04077   -0.00361    0.00558    0.00001
C49   1    0.707039   -0.184104    0.918196    11.00000    0.03233    0.03796 =
         0.03309   -0.00207    0.00093   -0.00148
C50   1    0.666763   -0.140745    0.904079    11.00000    0.04015    0.04518 =
         0.03495    0.00791    0.00130   -0.00330
AFIX  43
H50A  2    0.667337   -0.083657    0.885404    11.00000   -1.20000
AFIX   0
C51   1    0.627201   -0.179372    0.916778    11.00000    0.03594    0.04351 =
         0.04159    0.00645    0.00536    0.00083
C52   1    0.585198   -0.143455    0.902451    11.00000    0.03307    0.05250 =
         0.04325    0.00865    0.00042   -0.00104
C53   1    0.581091   -0.034381    0.877173    11.00000    0.03682    0.06672 =
         0.06119    0.01553    0.00728   -0.00505
AFIX  43
H53A  2    0.606056    0.017474    0.868810    11.00000   -1.20000
AFIX   0
C54   1    0.541008    0.000074    0.863921    11.00000    0.03226    0.08342 =
         0.06179    0.02713   -0.00123   -0.00234
AFIX  43
H54A  2    0.539214    0.077585    0.847362    11.00000   -1.20000
AFIX   0
C55   1    0.503254   -0.081679    0.875440    11.00000    0.02628    0.06514 =
         0.06293   -0.00070   -0.00297    0.00175
C56   1    0.507552   -0.191985    0.901061    11.00000    0.03565    0.07830 =
         0.07051    0.01792    0.00695   -0.00478
AFIX  43
H56A  2    0.482877   -0.246705    0.909343    11.00000   -1.20000
AFIX   0
C57   1    0.547190   -0.220313    0.914006    11.00000    0.03637    0.08051 =
         0.05562    0.01897    0.00222   -0.00538
AFIX  43
H57A  2    0.548926   -0.293306    0.931105    11.00000   -1.20000
AFIX   0
N42   4    0.463247   -0.054170    0.861821    11.00000    0.03145    0.09466 =
         0.08227    0.02963   -0.00104   -0.00511
C58   1    0.458998    0.062663    0.836132    11.00000    0.04776    0.16274 =
         0.10810    0.06269   -0.01438    0.00881
AFIX  33
H58A  2    0.429030    0.065134    0.829790    11.00000   -1.50000
H58B  2    0.468219    0.184934    0.841237    11.00000   -1.50000
H58C  2    0.476895    0.016285    0.820139    11.00000   -1.50000
AFIX   0
C59   1    0.423834   -0.127529    0.874963    11.00000    0.03364    0.11611 =
         0.12008    0.02762   -0.00657   -0.00648
AFIX  33
H59A  2    0.399262   -0.095614    0.862627    11.00000   -1.50000
H59B  2    0.426094   -0.258965    0.876328    11.00000   -1.50000
H59C  2    0.419928   -0.076806    0.894673    11.00000   -1.50000

AFIX   0
HKLF 4




REM  e1444a_a.res in Pbca
REM R1 =  0.0890 for    3772 Fo > 4sig(Fo)  and  0.1835 for all    7780 data
REM    676 parameters refined using      0 restraints

END

WGHT      0.0619      0.0000

REM No hydrogen bonds found for HTAB generation

REM Highest difference peak  0.250,  deepest hole -0.233,  1-sigma level  0.052
Q1    1   1.0534  0.4143  0.6421  11.00000  0.05    0.25
Q2    1   0.6561  0.4050  0.6933  11.00000  0.05    0.24
Q3    1   1.0582  0.5043  0.7668  11.00000  0.05    0.19
Q4    1   0.4253 -0.2249  0.8965  11.00000  0.05    0.19
Q5    1   0.5605  0.2459  0.8591  11.00000  0.05    0.19
;
_shelx_res_checksum              57118

_exptl_crystal_recrystallization_method 'Re-crystallisation from solvent'
