data_yang05
_audit_creation_date               2022-09-19
_audit_creation_method
;
Olex2 1.5-beta
(compiled 2021.12.09 svn.r5202d8cf for OlexSys, GUI svn.r6439)
;
_shelx_SHELXL_version_number       '2017/1'
_audit_contact_author_address      ?
_audit_contact_author_email        ?
_audit_contact_author_name         ''
_audit_contact_author_phone        ?
_publ_contact_author_id_orcid      ?
_publ_section_references
;
Dolomanov, O.V., Bourhis, L.J., Gildea, R.J, Howard, J.A.K. & Puschmann, H.
 (2009), J. Appl. Cryst. 42, 339-341.

Sheldrick, G.M. (2015). Acta Cryst. A71, 3-8.

Sheldrick, G.M. (2015). Acta Cryst. C71, 3-8.
;
_chemical_name_common              ?
_chemical_name_systematic          ?
_chemical_formula_moiety           '2(C H2 Cl2), C48 H42 N2 O4'
_chemical_formula_sum              'C50 H46 Cl4 N2 O4'
_chemical_formula_weight           880.69
_chemical_melting_point            ?
loop_
  _atom_type_symbol
  _atom_type_description
  _atom_type_scat_dispersion_real
  _atom_type_scat_dispersion_imag
  _atom_type_scat_source
 'C' 'C' 0.0181 0.0091 'International Tables Vol C Tables 4.2.6.8 and 6.1.1.4'
 'H' 'H' 0.0000 0.0000 'International Tables Vol C Tables 4.2.6.8 and 6.1.1.4'
 'Cl' 'Cl' 0.3639 0.7018 'International Tables Vol C Tables 4.2.6.8 and 6.1.1.4'
 'N' 'N' 0.0311 0.0180 'International Tables Vol C Tables 4.2.6.8 and 6.1.1.4'
 'O' 'O' 0.0492 0.0322 'International Tables Vol C Tables 4.2.6.8 and 6.1.1.4'

_shelx_space_group_comment
;
The symmetry employed for this shelxl refinement is uniquely defined
by the following loop, which should always be used as a source of
symmetry information in preference to the above space-group names.
They are only intended as comments.
;
_space_group_crystal_system        'monoclinic'
_space_group_IT_number             14
_space_group_name_H-M_alt          'P 1 21/n 1'
_space_group_name_Hall             '-P 2yn'
loop_
  _space_group_symop_operation_xyz
 'x, y, z'
 '-x+1/2, y+1/2, -z+1/2'
 '-x, -y, -z'
 'x-1/2, -y-1/2, z-1/2'

_cell_length_a                     10.0248(8)
_cell_length_b                     19.0585(15)
_cell_length_c                     11.4752(10)
_cell_angle_alpha                  90
_cell_angle_beta                   97.134(8)
_cell_angle_gamma                  90
_cell_volume                       2175.5(3)
_cell_formula_units_Z              2
_cell_measurement_reflns_used      2485
_cell_measurement_temperature      169.99(10)
_cell_measurement_theta_max        73.2730
_cell_measurement_theta_min        4.4590
_shelx_estimated_absorpt_T_max     0.763
_shelx_estimated_absorpt_T_min     0.691
_exptl_absorpt_coefficient_mu      2.854
_exptl_absorpt_correction_T_max    1.00000
_exptl_absorpt_correction_T_min    0.57924
_exptl_absorpt_correction_type     multi-scan
_exptl_absorpt_process_details
;
CrysAlisPro 1.171.38.43f (Rigaku Oxford Diffraction, 2015)
Empirical absorption correction using spherical harmonics,
 implemented in SCALE3 ABSPACK scaling algorithm.
;
_exptl_absorpt_special_details     ?
_exptl_crystal_colour              'light red'
_exptl_crystal_density_diffrn      1.344
_exptl_crystal_density_meas        ?
_exptl_crystal_density_method      ?
_exptl_crystal_description         block
_exptl_crystal_F_000               920
_exptl_crystal_size_max            0.14
_exptl_crystal_size_mid            0.12
_exptl_crystal_size_min            0.1
_exptl_transmission_factor_max     ?
_exptl_transmission_factor_min     ?
_diffrn_reflns_av_R_equivalents    0.0363
_diffrn_reflns_av_unetI/netI       0.0453
_diffrn_reflns_Laue_measured_fraction_full  0.999
_diffrn_reflns_Laue_measured_fraction_max  0.964
_diffrn_reflns_limit_h_max         7
_diffrn_reflns_limit_h_min         -12
_diffrn_reflns_limit_k_max         16
_diffrn_reflns_limit_k_min         -23
_diffrn_reflns_limit_l_max         13
_diffrn_reflns_limit_l_min         -13
_diffrn_reflns_number              8855
_diffrn_reflns_point_group_measured_fraction_full  0.999
_diffrn_reflns_point_group_measured_fraction_max  0.964
_diffrn_reflns_theta_full          67.684
_diffrn_reflns_theta_max           74.073
_diffrn_reflns_theta_min           4.524
_diffrn_ambient_environment        N~2~
_diffrn_ambient_temperature        169.99(10)
_diffrn_detector                   'CCD plate'
_diffrn_detector_area_resol_mean   5.2684
_diffrn_detector_type              AtlasS2
_diffrn_measured_fraction_theta_full  0.999
_diffrn_measured_fraction_theta_max  0.964
_diffrn_measurement_details
;
List of Runs (angles in degrees, time in seconds):

  # Type    Start    End  Width  t~exp~   \w     \q     \k     \f   Frames
--------------------------------------------------------------------------
  1  \w     33.00 114.00   1.00    1.65    --   41.11  38.00 -30.00   81
  2  \w    109.00 174.00   1.00    3.00    --  107.58 125.00 -30.00   65
  3  \w     96.00 178.00   1.00    3.00    --  107.58 125.00 120.00   82
  4  \w     96.00 170.00   1.00    3.00    --  107.58 125.00-120.00   74
  5  \w    148.00 178.00   1.00    3.00    --  107.58 125.00-180.00   30
  6  \w     88.00 165.00   1.00    3.00    --  107.58  45.00-180.00   77
  7  \w     50.00 130.00   1.00    3.00    --  107.58 -45.00 -30.00   80
  8  \w     71.00 112.00   1.00    3.00    --  107.58-125.00 -60.00   41
  9  \w     57.00  96.00   1.00    1.65    --   41.11-125.00  90.00   39
 10  \w    -66.00   9.00   1.00    1.65    --  -41.11  38.00-180.00   75
 11  \w    -88.00 -15.00   1.00    1.65    --  -41.11 -57.00 150.00   73
;
_diffrn_measurement_device         'four-circle diffractometer'
_diffrn_measurement_device_type    'SuperNova, Dual, Cu at zero, AtlasS2'
_diffrn_measurement_method         '\w scans'
_diffrn_orient_matrix_type        
 'CrysAlisPro convention (1999,Acta A55,543-557)'
_diffrn_orient_matrix_UB_11        -0.0811372000
_diffrn_orient_matrix_UB_12        -0.0081933000
_diffrn_orient_matrix_UB_13        -0.1222726000
_diffrn_orient_matrix_UB_21        0.0300226000
_diffrn_orient_matrix_UB_22        -0.0792779000
_diffrn_orient_matrix_UB_23        0.0029623000
_diffrn_orient_matrix_UB_31        -0.1283088000
_diffrn_orient_matrix_UB_32        -0.0133359000
_diffrn_orient_matrix_UB_33        0.0581089000
_diffrn_radiation_monochromator    mirror
_diffrn_radiation_probe            x-ray
_diffrn_radiation_type             'Cu K\a'
_diffrn_radiation_wavelength       1.54184
_diffrn_source                     'micro-focus sealed X-ray tube'
_diffrn_source_type                'SuperNova (Cu) X-ray Source'
_reflns_Friedel_coverage           0.000
_reflns_Friedel_fraction_full      .
_reflns_Friedel_fraction_max       .
_reflns_number_gt                  3026
_reflns_number_total               4269
_reflns_special_details
;
 Reflections were merged by SHELXL according to the crystal
 class for the calculation of statistics and refinement.
 
 _reflns_Friedel_fraction is defined as the number of unique
 Friedel pairs measured divided by the number that would be
 possible theoretically, ignoring centric projections and
 systematic absences.
;
_reflns_threshold_expression       'I > 2\s(I)'
_computing_cell_refinement         'CrysAlisPro 1.171.38.43f (Rigaku OD, 2015)'
_computing_data_collection         'CrysAlisPro 1.171.38.43f (Rigaku OD, 2015)'
_computing_data_reduction          'CrysAlisPro 1.171.38.43f (Rigaku OD, 2015)'
_computing_molecular_graphics      'Olex2 1.5-beta (Dolomanov et al., 2009)'
_computing_publication_material    'Olex2 1.5-beta (Dolomanov et al., 2009)'
_computing_structure_refinement    'SHELXL 2017/1 (Sheldrick, 2015)'
_computing_structure_solution      'SHELXT 2018/2 (Sheldrick, 2018)'
_refine_diff_density_max           0.538
_refine_diff_density_min           -0.641
_refine_diff_density_rms           0.100
_refine_ls_extinction_coef         .
_refine_ls_extinction_method       none
_refine_ls_goodness_of_fit_ref     1.069
_refine_ls_hydrogen_treatment      constr
_refine_ls_matrix_type             full
_refine_ls_number_parameters       275
_refine_ls_number_reflns           4269
_refine_ls_number_restraints       0
_refine_ls_R_factor_all            0.1094
_refine_ls_R_factor_gt             0.0855
_refine_ls_restrained_S_all        1.069
_refine_ls_shift/su_max            0.000
_refine_ls_shift/su_mean           0.000
_refine_ls_structure_factor_coef   Fsqd
_refine_ls_weighting_details      
 'w=1/[\s^2^(Fo^2^)+(0.1334P)^2^+1.4243P] where P=(Fo^2^+2Fc^2^)/3'
_refine_ls_weighting_scheme        calc
_refine_ls_wR_factor_gt            0.2309
_refine_ls_wR_factor_ref           0.2586
_refine_special_details            ?
_olex2_refinement_description
;
1. Fixed Uiso
 At 1.2 times of:
  All C(H) groups, All C(H,H) groups
 At 1.5 times of:
  All C(H,H,H) groups
2.a Ternary CH refined with riding coordinates:
 C19(H19), C22(H22)
2.b Secondary CH2 refined with riding coordinates:
 C25(H25A,H25B)
2.c Aromatic/amide H refined with riding coordinates:
 C2(H2), C3(H3), C7(H7), C8(H8), C15(H15), C16(H16), C17(H17)
2.d Idealised Me refined as rotating group:
 C20(H20A,H20B,H20C), C21(H21A,H21B,H21C), C23(H23A,H23B,H23C), C24(H24A,H24B,
 H24C)
;
_atom_sites_solution_hydrogens     geom
_atom_sites_solution_primary       dual
_atom_sites_solution_secondary     ?
loop_
  _atom_site_label
  _atom_site_type_symbol
  _atom_site_fract_x
  _atom_site_fract_y
  _atom_site_fract_z
  _atom_site_U_iso_or_equiv
  _atom_site_adp_type
  _atom_site_occupancy
  _atom_site_site_symmetry_order
  _atom_site_calc_flag
  _atom_site_refinement_flags_posn
  _atom_site_refinement_flags_adp
  _atom_site_refinement_flags_occupancy
  _atom_site_disorder_assembly
  _atom_site_disorder_group
 Cl1 Cl 0.0912(2) 0.91952(9) 0.42969(13) 0.1021(6) Uani 1 1 d . . . . .
 Cl2 Cl 0.14782(19) 0.77229(10) 0.4106(2) 0.1197(7) Uani 1 1 d . . . . .
 C25 C 0.0306(5) 0.8362(4) 0.3781(4) 0.093(2) Uani 1 1 d . . . . .
 H25A H -0.051204 0.824370 0.414300 0.112 Uiso 1 1 calc R U . . .
 H25B H 0.005587 0.838295 0.291947 0.112 Uiso 1 1 calc R U . . .
 O1 O 0.4632(3) 0.68469(11) 0.5905(2) 0.0405(6) Uani 1 1 d . . . . .
 O2 O 0.7237(3) 0.73250(12) 0.3043(2) 0.0497(7) Uani 1 1 d . . . . .
 N1 N 0.5908(2) 0.70858(13) 0.4449(2) 0.0319(6) Uani 1 1 d . . . . .
 C1 C 0.6311(3) 0.83063(16) 0.3912(3) 0.0308(6) Uani 1 1 d . . . . .
 C2 C 0.6870(3) 0.87871(16) 0.3220(3) 0.0342(7) Uani 1 1 d . . . . .
 H2 H 0.740841 0.862810 0.264808 0.041 Uiso 1 1 calc R U . . .
 C3 C 0.6656(3) 0.95012(16) 0.3347(3) 0.0344(7) Uani 1 1 d . . . . .
 H3 H 0.707390 0.982344 0.287435 0.041 Uiso 1 1 calc R U . . .
 C4 C 0.5842(3) 0.97550(15) 0.4152(2) 0.0296(6) Uani 1 1 d . . . . .
 C5 C 0.5254(3) 0.92666(15) 0.4883(2) 0.0286(6) Uani 1 1 d . . . . .
 C6 C 0.4412(3) 0.94926(15) 0.5731(2) 0.0287(6) Uani 1 1 d . . . . .
 C7 C 0.3880(3) 0.89912(16) 0.6417(3) 0.0337(7) Uani 1 1 d . . . . .
 H7 H 0.333313 0.913814 0.699088 0.040 Uiso 1 1 calc R U . . .
 C8 C 0.4124(3) 0.82806(16) 0.6288(3) 0.0342(7) Uani 1 1 d . . . . .
 H8 H 0.373684 0.795067 0.676792 0.041 Uiso 1 1 calc R U . . .
 C9 C 0.4919(3) 0.80482(15) 0.5472(2) 0.0302(6) Uani 1 1 d . . . . .
 C10 C 0.5496(3) 0.85386(15) 0.4754(2) 0.0285(6) Uani 1 1 d . . . . .
 C11 C 0.6541(3) 0.75515(16) 0.3745(3) 0.0334(7) Uani 1 1 d . . . . .
 C12 C 0.5122(3) 0.72886(16) 0.5322(3) 0.0326(7) Uani 1 1 d . . . . .
 C13 C 0.6037(3) 0.63408(16) 0.4238(3) 0.0323(6) Uani 1 1 d . . . . .
 C14 C 0.7177(3) 0.59888(17) 0.4754(3) 0.0389(7) Uani 1 1 d . . . . .
 C15 C 0.7237(4) 0.52703(18) 0.4559(3) 0.0446(8) Uani 1 1 d . . . . .
 H15 H 0.800483 0.501624 0.489500 0.053 Uiso 1 1 calc R U . . .
 C16 C 0.6217(4) 0.49167(18) 0.3894(3) 0.0458(8) Uani 1 1 d . . . . .
 H16 H 0.626466 0.442262 0.379801 0.055 Uiso 1 1 calc R U . . .
 C17 C 0.5121(4) 0.52880(18) 0.3365(3) 0.0443(8) Uani 1 1 d . . . . .
 H17 H 0.443114 0.504457 0.288429 0.053 Uiso 1 1 calc R U . . .
 C18 C 0.5000(3) 0.60036(17) 0.3517(3) 0.0368(7) Uani 1 1 d . . . . .
 C19 C 0.3823(4) 0.6406(2) 0.2899(3) 0.0464(8) Uani 1 1 d . . . . .
 H19 H 0.377734 0.686637 0.331078 0.056 Uiso 1 1 calc R U . . .
 C20 C 0.2481(5) 0.6034(3) 0.2936(5) 0.0787(15) Uani 1 1 d . . . . .
 H20A H 0.246630 0.559904 0.247904 0.118 Uiso 1 1 calc R U . . .
 H20B H 0.174730 0.634064 0.259958 0.118 Uiso 1 1 calc R U . . .
 H20C H 0.236755 0.592379 0.375155 0.118 Uiso 1 1 calc R U . . .
 C21 C 0.4011(5) 0.6559(3) 0.1635(4) 0.0763(14) Uani 1 1 d . . . . .
 H21A H 0.487228 0.679761 0.160929 0.114 Uiso 1 1 calc R U . . .
 H21B H 0.327790 0.685976 0.128099 0.114 Uiso 1 1 calc R U . . .
 H21C H 0.400445 0.611704 0.119671 0.114 Uiso 1 1 calc R U . . .
 C22 C 0.8290(4) 0.6361(2) 0.5525(3) 0.0504(9) Uani 1 1 d . . . . .
 H22 H 0.816862 0.687556 0.538185 0.060 Uiso 1 1 calc R U . . .
 C23 C 0.8186(5) 0.6232(4) 0.6808(4) 0.103(2) Uani 1 1 d . . . . .
 H23A H 0.727104 0.633837 0.697161 0.154 Uiso 1 1 calc R U . . .
 H23B H 0.882569 0.653531 0.728788 0.154 Uiso 1 1 calc R U . . .
 H23C H 0.839396 0.573983 0.699737 0.154 Uiso 1 1 calc R U . . .
 C24 C 0.9683(5) 0.6169(3) 0.5247(5) 0.0834(17) Uani 1 1 d . . . . .
 H24A H 0.987360 0.567825 0.546126 0.125 Uiso 1 1 calc R U . . .
 H24B H 1.034937 0.647283 0.569530 0.125 Uiso 1 1 calc R U . . .
 H24C H 0.972687 0.623242 0.440534 0.125 Uiso 1 1 calc R U . . .

loop_
  _atom_site_aniso_label
  _atom_site_aniso_U_11
  _atom_site_aniso_U_22
  _atom_site_aniso_U_33
  _atom_site_aniso_U_23
  _atom_site_aniso_U_13
  _atom_site_aniso_U_12
 Cl1 0.1337(14) 0.1050(11) 0.0668(8) 0.0229(8) 0.0094(8) 0.0185(10)
 Cl2 0.0972(11) 0.1055(13) 0.1504(18) -0.0047(11) -0.0079(11) 0.0102(9)
 C25 0.057(3) 0.177(7) 0.045(2) -0.017(3) 0.001(2) 0.020(3)
 O1 0.0567(14) 0.0312(11) 0.0369(12) 0.0021(9) 0.0187(10) -0.0009(10)
 O2 0.0633(16) 0.0381(13) 0.0554(15) -0.0005(11) 0.0375(13) 0.0060(11)
 N1 0.0363(13) 0.0309(13) 0.0297(12) -0.0008(10) 0.0080(10) 0.0028(10)
 C1 0.0314(14) 0.0329(15) 0.0288(14) -0.0007(12) 0.0065(11) 0.0007(12)
 C2 0.0365(15) 0.0382(16) 0.0305(15) -0.0022(12) 0.0145(12) 0.0002(12)
 C3 0.0368(16) 0.0368(16) 0.0325(15) 0.0039(13) 0.0149(12) 0.0005(12)
 C4 0.0320(14) 0.0331(15) 0.0244(13) 0.0000(11) 0.0066(11) 0.0015(11)
 C5 0.0282(14) 0.0344(15) 0.0240(13) -0.0001(11) 0.0064(11) -0.0001(11)
 C6 0.0300(14) 0.0325(15) 0.0241(13) 0.0007(11) 0.0057(10) -0.0006(11)
 C7 0.0383(16) 0.0369(16) 0.0285(14) 0.0001(12) 0.0151(12) 0.0020(12)
 C8 0.0410(16) 0.0336(15) 0.0302(15) 0.0033(12) 0.0135(12) -0.0010(12)
 C9 0.0317(14) 0.0315(15) 0.0281(14) -0.0008(11) 0.0064(11) 0.0005(11)
 C10 0.0281(13) 0.0335(15) 0.0245(13) 0.0009(11) 0.0057(10) 0.0023(11)
 C11 0.0349(15) 0.0366(16) 0.0307(15) 0.0004(12) 0.0116(12) 0.0019(12)
 C12 0.0355(15) 0.0328(15) 0.0300(15) 0.0017(12) 0.0059(12) 0.0010(12)
 C13 0.0389(15) 0.0321(15) 0.0278(14) -0.0017(12) 0.0115(12) 0.0033(12)
 C14 0.0449(18) 0.0386(17) 0.0341(16) 0.0009(13) 0.0094(13) 0.0064(14)
 C15 0.052(2) 0.0377(17) 0.0461(19) 0.0044(15) 0.0150(15) 0.0110(15)
 C16 0.066(2) 0.0300(16) 0.0459(19) -0.0039(14) 0.0266(17) 0.0031(15)
 C17 0.055(2) 0.0436(18) 0.0367(17) -0.0061(14) 0.0143(15) -0.0025(15)
 C18 0.0442(17) 0.0421(17) 0.0258(14) -0.0009(12) 0.0113(12) 0.0005(14)
 C19 0.052(2) 0.0491(19) 0.0362(17) -0.0004(15) -0.0008(14) 0.0011(16)
 C20 0.052(2) 0.097(4) 0.083(3) 0.035(3) -0.009(2) -0.004(2)
 C21 0.079(3) 0.100(4) 0.048(2) 0.026(2) -0.001(2) 0.001(3)
 C22 0.049(2) 0.049(2) 0.051(2) -0.0006(16) -0.0051(16) 0.0082(16)
 C23 0.058(3) 0.201(7) 0.048(3) -0.030(4) 0.005(2) -0.020(4)
 C24 0.052(3) 0.133(5) 0.067(3) -0.011(3) 0.014(2) -0.015(3)

_geom_special_details
;
 All esds (except the esd in the dihedral angle between two l.s. planes)
 are estimated using the full covariance matrix.  The cell esds are taken
 into account individually in the estimation of esds in distances, angles
 and torsion angles; correlations between esds in cell parameters are only
 used when they are defined by crystal symmetry.  An approximate (isotropic)
 treatment of cell esds is used for estimating esds involving l.s. planes.
;
loop_
  _geom_bond_atom_site_label_1
  _geom_bond_atom_site_label_2
  _geom_bond_distance
  _geom_bond_site_symmetry_2
  _geom_bond_publ_flag
 Cl1 C25 1.775(7) . ?
 Cl2 C25 1.702(6) . ?
 C25 H25A 0.9900 . ?
 C25 H25B 0.9900 . ?
 O1 C12 1.216(4) . ?
 O2 C11 1.209(4) . ?
 N1 C11 1.404(4) . ?
 N1 C12 1.404(4) . ?
 N1 C13 1.449(4) . ?
 C1 C2 1.376(4) . ?
 C1 C10 1.412(4) . ?
 C1 C11 1.473(4) . ?
 C2 H2 0.9500 . ?
 C2 C3 1.388(4) . ?
 C3 H3 0.9500 . ?
 C3 C4 1.393(4) . ?
 C4 C5 1.428(4) . ?
 C4 C6 1.466(4) 3_676 ?
 C5 C6 1.432(4) . ?
 C5 C10 1.419(4) . ?
 C6 C7 1.386(4) . ?
 C7 H7 0.9500 . ?
 C7 C8 1.387(4) . ?
 C8 H8 0.9500 . ?
 C8 C9 1.376(4) . ?
 C9 C10 1.416(4) . ?
 C9 C12 1.475(4) . ?
 C13 C14 1.393(4) . ?
 C13 C18 1.401(4) . ?
 C14 C15 1.390(5) . ?
 C14 C22 1.511(5) . ?
 C15 H15 0.9500 . ?
 C15 C16 1.374(5) . ?
 C16 H16 0.9500 . ?
 C16 C17 1.382(5) . ?
 C17 H17 0.9500 . ?
 C17 C18 1.382(5) . ?
 C18 C19 1.509(5) . ?
 C19 H19 1.0000 . ?
 C19 C20 1.526(6) . ?
 C19 C21 1.514(5) . ?
 C20 H20A 0.9800 . ?
 C20 H20B 0.9800 . ?
 C20 H20C 0.9800 . ?
 C21 H21A 0.9800 . ?
 C21 H21B 0.9800 . ?
 C21 H21C 0.9800 . ?
 C22 H22 1.0000 . ?
 C22 C23 1.508(7) . ?
 C22 C24 1.515(6) . ?
 C23 H23A 0.9800 . ?
 C23 H23B 0.9800 . ?
 C23 H23C 0.9800 . ?
 C24 H24A 0.9800 . ?
 C24 H24B 0.9800 . ?
 C24 H24C 0.9800 . ?

loop_
  _geom_angle_atom_site_label_1
  _geom_angle_atom_site_label_2
  _geom_angle_atom_site_label_3
  _geom_angle
  _geom_angle_site_symmetry_1
  _geom_angle_site_symmetry_3
  _geom_angle_publ_flag
 Cl1 C25 H25A 109.3 . . ?
 Cl1 C25 H25B 109.3 . . ?
 Cl2 C25 Cl1 111.6(3) . . ?
 Cl2 C25 H25A 109.3 . . ?
 Cl2 C25 H25B 109.3 . . ?
 H25A C25 H25B 108.0 . . ?
 C11 N1 C12 124.8(3) . . ?
 C11 N1 C13 117.9(2) . . ?
 C12 N1 C13 117.3(2) . . ?
 C2 C1 C10 119.8(3) . . ?
 C2 C1 C11 119.6(3) . . ?
 C10 C1 C11 120.6(3) . . ?
 C1 C2 H2 119.6 . . ?
 C1 C2 C3 120.9(3) . . ?
 C3 C2 H2 119.6 . . ?
 C2 C3 H3 119.3 . . ?
 C2 C3 C4 121.4(3) . . ?
 C4 C3 H3 119.3 . . ?
 C3 C4 C5 118.8(3) . . ?
 C3 C4 C6 121.6(3) . 3_676 ?
 C5 C4 C6 119.6(3) . 3_676 ?
 C4 C5 C6 121.6(3) . . ?
 C10 C5 C4 119.2(3) . . ?
 C10 C5 C6 119.2(3) . . ?
 C5 C6 C4 118.7(3) . 3_676 ?
 C7 C6 C4 122.6(3) . 3_676 ?
 C7 C6 C5 118.7(3) . . ?
 C6 C7 H7 119.1 . . ?
 C6 C7 C8 121.8(3) . . ?
 C8 C7 H7 119.1 . . ?
 C7 C8 H8 119.6 . . ?
 C9 C8 C7 120.8(3) . . ?
 C9 C8 H8 119.6 . . ?
 C8 C9 C10 119.8(3) . . ?
 C8 C9 C12 119.7(3) . . ?
 C10 C9 C12 120.5(3) . . ?
 C1 C10 C5 119.9(3) . . ?
 C1 C10 C9 120.3(3) . . ?
 C9 C10 C5 119.8(3) . . ?
 O2 C11 N1 119.8(3) . . ?
 O2 C11 C1 123.2(3) . . ?
 N1 C11 C1 116.9(2) . . ?
 O1 C12 N1 120.2(3) . . ?
 O1 C12 C9 123.0(3) . . ?
 N1 C12 C9 116.8(3) . . ?
 C14 C13 N1 119.1(3) . . ?
 C14 C13 C18 122.6(3) . . ?
 C18 C13 N1 118.3(3) . . ?
 C13 C14 C22 122.0(3) . . ?
 C15 C14 C13 117.1(3) . . ?
 C15 C14 C22 120.9(3) . . ?
 C14 C15 H15 119.0 . . ?
 C16 C15 C14 121.9(3) . . ?
 C16 C15 H15 119.0 . . ?
 C15 C16 H16 120.4 . . ?
 C15 C16 C17 119.3(3) . . ?
 C17 C16 H16 120.4 . . ?
 C16 C17 H17 119.1 . . ?
 C16 C17 C18 121.8(3) . . ?
 C18 C17 H17 119.1 . . ?
 C13 C18 C19 121.6(3) . . ?
 C17 C18 C13 117.2(3) . . ?
 C17 C18 C19 121.2(3) . . ?
 C18 C19 H19 107.6 . . ?
 C18 C19 C20 113.1(3) . . ?
 C18 C19 C21 111.4(3) . . ?
 C20 C19 H19 107.6 . . ?
 C21 C19 H19 107.6 . . ?
 C21 C19 C20 109.3(4) . . ?
 C19 C20 H20A 109.5 . . ?
 C19 C20 H20B 109.5 . . ?
 C19 C20 H20C 109.5 . . ?
 H20A C20 H20B 109.5 . . ?
 H20A C20 H20C 109.5 . . ?
 H20B C20 H20C 109.5 . . ?
 C19 C21 H21A 109.5 . . ?
 C19 C21 H21B 109.5 . . ?
 C19 C21 H21C 109.5 . . ?
 H21A C21 H21B 109.5 . . ?
 H21A C21 H21C 109.5 . . ?
 H21B C21 H21C 109.5 . . ?
 C14 C22 H22 107.3 . . ?
 C14 C22 C24 113.4(3) . . ?
 C23 C22 C14 111.1(4) . . ?
 C23 C22 H22 107.3 . . ?
 C23 C22 C24 110.1(4) . . ?
 C24 C22 H22 107.3 . . ?
 C22 C23 H23A 109.5 . . ?
 C22 C23 H23B 109.5 . . ?
 C22 C23 H23C 109.5 . . ?
 H23A C23 H23B 109.5 . . ?
 H23A C23 H23C 109.5 . . ?
 H23B C23 H23C 109.5 . . ?
 C22 C24 H24A 109.5 . . ?
 C22 C24 H24B 109.5 . . ?
 C22 C24 H24C 109.5 . . ?
 H24A C24 H24B 109.5 . . ?
 H24A C24 H24C 109.5 . . ?
 H24B C24 H24C 109.5 . . ?

loop_
  _geom_torsion_atom_site_label_1
  _geom_torsion_atom_site_label_2
  _geom_torsion_atom_site_label_3
  _geom_torsion_atom_site_label_4
  _geom_torsion
  _geom_torsion_site_symmetry_1
  _geom_torsion_site_symmetry_2
  _geom_torsion_site_symmetry_3
  _geom_torsion_site_symmetry_4
  _geom_torsion_publ_flag
 N1 C13 C14 C15 177.9(3) . . . . ?
 N1 C13 C14 C22 -0.3(5) . . . . ?
 N1 C13 C18 C17 -177.5(3) . . . . ?
 N1 C13 C18 C19 4.4(4) . . . . ?
 C1 C2 C3 C4 -1.8(5) . . . . ?
 C2 C1 C10 C5 0.0(4) . . . . ?
 C2 C1 C10 C9 -179.9(3) . . . . ?
 C2 C1 C11 O2 2.2(5) . . . . ?
 C2 C1 C11 N1 -177.9(3) . . . . ?
 C2 C3 C4 C5 1.9(5) . . . . ?
 C2 C3 C4 C6 -178.5(3) . . . 3_676 ?
 C3 C4 C5 C6 179.8(3) . . . . ?
 C3 C4 C5 C10 -1.1(4) . . . . ?
 C4 C5 C6 C4 -0.2(5) . . . 3_676 ?
 C4 C5 C6 C7 -179.6(3) . . . . ?
 C4 C5 C10 C1 0.1(4) . . . . ?
 C4 C5 C10 C9 180.0(3) . . . . ?
 C4 C6 C7 C8 179.5(3) 3_676 . . . ?
 C5 C6 C7 C8 -1.1(5) . . . . ?
 C6 C4 C5 C6 0.2(5) 3_676 . . . ?
 C6 C4 C5 C10 179.3(2) 3_676 . . . ?
 C6 C5 C10 C1 179.3(3) . . . . ?
 C6 C5 C10 C9 -0.9(4) . . . . ?
 C6 C7 C8 C9 0.5(5) . . . . ?
 C7 C8 C9 C10 -0.1(5) . . . . ?
 C7 C8 C9 C12 -177.8(3) . . . . ?
 C8 C9 C10 C1 -179.9(3) . . . . ?
 C8 C9 C10 C5 0.3(4) . . . . ?
 C8 C9 C12 O1 -1.2(5) . . . . ?
 C8 C9 C12 N1 178.0(3) . . . . ?
 C10 C1 C2 C3 0.8(5) . . . . ?
 C10 C1 C11 O2 -179.5(3) . . . . ?
 C10 C1 C11 N1 0.4(4) . . . . ?
 C10 C5 C6 C4 -179.3(2) . . . 3_676 ?
 C10 C5 C6 C7 1.3(4) . . . . ?
 C10 C9 C12 O1 -178.9(3) . . . . ?
 C10 C9 C12 N1 0.3(4) . . . . ?
 C11 N1 C12 O1 -178.7(3) . . . . ?
 C11 N1 C12 C9 2.1(4) . . . . ?
 C11 N1 C13 C14 83.8(3) . . . . ?
 C11 N1 C13 C18 -96.2(3) . . . . ?
 C11 C1 C2 C3 179.1(3) . . . . ?
 C11 C1 C10 C5 -178.3(3) . . . . ?
 C11 C1 C10 C9 1.8(4) . . . . ?
 C12 N1 C11 O2 177.4(3) . . . . ?
 C12 N1 C11 C1 -2.5(4) . . . . ?
 C12 N1 C13 C14 -98.1(3) . . . . ?
 C12 N1 C13 C18 81.9(3) . . . . ?
 C12 C9 C10 C1 -2.2(4) . . . . ?
 C12 C9 C10 C5 177.9(3) . . . . ?
 C13 N1 C11 O2 -4.7(4) . . . . ?
 C13 N1 C11 C1 175.4(3) . . . . ?
 C13 N1 C12 O1 3.4(4) . . . . ?
 C13 N1 C12 C9 -175.8(2) . . . . ?
 C13 C14 C15 C16 -0.5(5) . . . . ?
 C13 C14 C22 C23 101.0(5) . . . . ?
 C13 C14 C22 C24 -134.5(4) . . . . ?
 C13 C18 C19 C20 -138.1(4) . . . . ?
 C13 C18 C19 C21 98.4(4) . . . . ?
 C14 C13 C18 C17 2.5(4) . . . . ?
 C14 C13 C18 C19 -175.6(3) . . . . ?
 C14 C15 C16 C17 2.5(5) . . . . ?
 C15 C14 C22 C23 -77.2(5) . . . . ?
 C15 C14 C22 C24 47.4(5) . . . . ?
 C15 C16 C17 C18 -2.1(5) . . . . ?
 C16 C17 C18 C13 -0.3(5) . . . . ?
 C16 C17 C18 C19 177.8(3) . . . . ?
 C17 C18 C19 C20 43.9(5) . . . . ?
 C17 C18 C19 C21 -79.6(4) . . . . ?
 C18 C13 C14 C15 -2.1(5) . . . . ?
 C18 C13 C14 C22 179.7(3) . . . . ?
 C22 C14 C15 C16 177.8(3) . . . . ?

_shelx_res_file
;
TITL yang05_a.res in P2(1)/n
    yang05.res
    created by SHELXL-2017/1 at 21:59:04 on 19-Sep-2022
REM Old TITL yang05 in P2(1)/n
REM SHELXT solution in P2(1)/n: R1 0.263, Rweak 0.063, Alpha 0.035
REM <I/s> 0.867 for 145 systematic absences, Orientation as input
REM Formula found by SHELXT: C24 N O4
CELL 1.54184 10.0248 19.0585 11.4752 90 97.134 90
ZERR 2 0.0008 0.0015 0.001 0 0.008 0
LATT 1
SYMM 0.5-X,0.5+Y,0.5-Z
SFAC C H Cl N O
UNIT 100 92 8 4 8

L.S. 20
PLAN  8
SIZE 0.1 0.12 0.14
TEMP -120
CONF
BOND
list 4
fmap 2
acta
MORE -1
BOND $H
REM <olex2.extras>
REM <HklSrc "%.\\yang05.hkl">
REM </olex2.extras>

WGHT    0.133400    1.424300
FVAR       0.21041
CL1   3    0.091152    0.919524    0.429689    11.00000    0.13373    0.10497 =
         0.06682    0.02294    0.00937    0.01851
CL2   3    0.147824    0.772286    0.410647    11.00000    0.09717    0.10552 =
         0.15042   -0.00469   -0.00789    0.01015
C25   1    0.030576    0.836192    0.378095    11.00000    0.05678    0.17674 =
         0.04495   -0.01661    0.00068    0.01994
AFIX  23
H25A  2   -0.051204    0.824370    0.414300    11.00000   -1.20000
H25B  2    0.005587    0.838295    0.291947    11.00000   -1.20000
AFIX   0

O1    5    0.463224    0.684687    0.590469    11.00000    0.05668    0.03117 =
         0.03693    0.00215    0.01874   -0.00092
O2    5    0.723741    0.732504    0.304339    11.00000    0.06330    0.03809 =
         0.05541   -0.00051    0.03753    0.00604
N1    4    0.590847    0.708583    0.444910    11.00000    0.03626    0.03086 =
         0.02965   -0.00076    0.00798    0.00276
C1    1    0.631132    0.830628    0.391231    11.00000    0.03144    0.03286 =
         0.02882   -0.00070    0.00648    0.00073
C2    1    0.686969    0.878711    0.322015    11.00000    0.03647    0.03824 =
         0.03054   -0.00218    0.01447    0.00024
AFIX  43
H2    2    0.740841    0.862810    0.264808    11.00000   -1.20000
AFIX   0
C3    1    0.665637    0.950116    0.334662    11.00000    0.03675    0.03676 =
         0.03246    0.00387    0.01495    0.00049
AFIX  43
H3    2    0.707390    0.982344    0.287435    11.00000   -1.20000
AFIX   0
C4    1    0.584241    0.975498    0.415204    11.00000    0.03200    0.03311 =
         0.02442    0.00002    0.00663    0.00152
C5    1    0.525416    0.926659    0.488286    11.00000    0.02821    0.03442 =
         0.02400   -0.00012    0.00644   -0.00014
C6    1    0.441194    0.949260    0.573089    11.00000    0.03002    0.03250 =
         0.02411    0.00066    0.00574   -0.00065
C7    1    0.387977    0.899117    0.641674    11.00000    0.03829    0.03695 =
         0.02848    0.00005    0.01507    0.00199
AFIX  43
H7    2    0.333313    0.913814    0.699088    11.00000   -1.20000
AFIX   0
C8    1    0.412357    0.828061    0.628766    11.00000    0.04102    0.03357 =
         0.03023    0.00329    0.01350   -0.00095
AFIX  43
H8    2    0.373684    0.795067    0.676792    11.00000   -1.20000
AFIX   0
C9    1    0.491885    0.804823    0.547229    11.00000    0.03175    0.03149 =
         0.02815   -0.00076    0.00640    0.00050
C10   1    0.549551    0.853861    0.475386    11.00000    0.02811    0.03353 =
         0.02455    0.00094    0.00573    0.00227
C11   1    0.654110    0.755149    0.374493    11.00000    0.03488    0.03664 =
         0.03073    0.00036    0.01164    0.00191
C12   1    0.512219    0.728859    0.532210    11.00000    0.03549    0.03281 =
         0.02995    0.00167    0.00592    0.00097
C13   1    0.603687    0.634084    0.423767    11.00000    0.03887    0.03214 =
         0.02781   -0.00171    0.01146    0.00332
C14   1    0.717694    0.598878    0.475435    11.00000    0.04494    0.03863 =
         0.03413    0.00088    0.00938    0.00644
C15   1    0.723659    0.527025    0.455885    11.00000    0.05208    0.03773 =
         0.04612    0.00438    0.01498    0.01099
AFIX  43
H15   2    0.800483    0.501624    0.489500    11.00000   -1.20000
AFIX   0
C16   1    0.621683    0.491675    0.389360    11.00000    0.06641    0.03002 =
         0.04587   -0.00394    0.02664    0.00311
AFIX  43
H16   2    0.626466    0.442262    0.379801    11.00000   -1.20000
AFIX   0
C17   1    0.512064    0.528795    0.336500    11.00000    0.05477    0.04365 =
         0.03669   -0.00614    0.01429   -0.00250
AFIX  43
H17   2    0.443114    0.504457    0.288429    11.00000   -1.20000
AFIX   0
C18   1    0.500031    0.600356    0.351673    11.00000    0.04419    0.04209 =
         0.02584   -0.00091    0.01125    0.00048
C19   1    0.382258    0.640614    0.289900    11.00000    0.05245    0.04907 =
         0.03624   -0.00045   -0.00078    0.00114
AFIX  13
H19   2    0.377734    0.686637    0.331078    11.00000   -1.20000
AFIX   0
C20   1    0.248100    0.603415    0.293556    11.00000    0.05198    0.09660 =
         0.08322    0.03525   -0.00922   -0.00356
AFIX 137
H20A  2    0.246630    0.559904    0.247904    11.00000   -1.50000
H20B  2    0.174730    0.634064    0.259958    11.00000   -1.50000
H20C  2    0.236755    0.592379    0.375155    11.00000   -1.50000
AFIX   0
C21   1    0.401090    0.655858    0.163507    11.00000    0.07879    0.10024 =
         0.04778    0.02643   -0.00071    0.00079
AFIX 137
H21A  2    0.487228    0.679761    0.160929    11.00000   -1.50000
H21B  2    0.327790    0.685976    0.128099    11.00000   -1.50000
H21C  2    0.400445    0.611704    0.119671    11.00000   -1.50000
AFIX   0
C22   1    0.828983    0.636063    0.552528    11.00000    0.04886    0.04861 =
         0.05091   -0.00055   -0.00509    0.00823
AFIX  13
H22   2    0.816862    0.687556    0.538185    11.00000   -1.20000
AFIX   0
C23   1    0.818604    0.623230    0.680783    11.00000    0.05837    0.20132 =
         0.04776   -0.03007    0.00488   -0.01962
AFIX 137
H23A  2    0.727104    0.633837    0.697161    11.00000   -1.50000
H23B  2    0.882569    0.653531    0.728788    11.00000   -1.50000
H23C  2    0.839396    0.573983    0.699737    11.00000   -1.50000
AFIX   0
C24   1    0.968295    0.616912    0.524724    11.00000    0.05161    0.13320 =
         0.06703   -0.01147    0.01395   -0.01474
AFIX 137
H24A  2    0.987360    0.567825    0.546126    11.00000   -1.50000
H24B  2    1.034937    0.647283    0.569530    11.00000   -1.50000
H24C  2    0.972687    0.623242    0.440534    11.00000   -1.50000
AFIX   0
HKLF 4




REM  yang05_a.res in P2(1)/n
REM R1 =  0.0855 for    3026 Fo > 4sig(Fo)  and  0.1094 for all    4269 data
REM    275 parameters refined using      0 restraints

END

WGHT      0.1342      1.4187

REM Highest difference peak  0.538,  deepest hole -0.641,  1-sigma level  0.100
Q1    1   0.0563  0.7849  0.4191  11.00000  0.05    0.54
Q2    1   0.5952  0.7526  0.4073  11.00000  0.05    0.49
Q3    1   0.6030  0.8389  0.4221  11.00000  0.05    0.45
Q4    1   0.5860  0.8480  0.4421  11.00000  0.05    0.44
Q5    1   0.5901  0.9114  0.4346  11.00000  0.05    0.44
Q6    1   0.4442  0.9045  0.6027  11.00000  0.05    0.44
Q7    1   0.5310  0.8095  0.5114  11.00000  0.05    0.43
Q8    1   0.5063  0.8143  0.5271  11.00000  0.05    0.43
;
_shelx_res_checksum                19074
_shelx_hkl_file
;
   0   0  -1    0.03    0.04
   0   0   2 1312.40    8.21
   0   0  -2 1277.16    8.63
   0   0  -3    0.13    0.22
   0   0  -4  470.67    7.17
   0   0  -5    0.17    0.18
   0   0  -6   13.37    1.56
   0   0  -7   -0.27    0.36
   0   0  -8   88.13    4.68
   0   0  -9    0.30    0.41
   0   0  10    1.01    0.37
   0   0 -10    0.92    0.54
   0   0 -11   -0.26    0.30
   0   0  11    0.70    0.38
   0   0  12    0.53    0.27
   0   0 -12   -0.48    0.37
   0   0 -13   -0.04    0.22
   0  -1   0    0.02    0.02
   0  -1   1   41.38    0.98
   0  -1   1   42.17    0.80
   0   1  -2  614.75    6.00
   0  -1   2  634.27    5.36
   0  -1   3    2.67    0.50
   0   1  -3    2.80    0.52
   0  -1  -3    2.85    0.50
   0   1  -4    2.99    0.63
   0  -1  -4    3.62    0.68
   0   1  -5  117.48    4.08
   0  -1  -5  122.66    4.14
   0  -1  -6    8.44    1.21
   0   1  -6    8.68    1.28
   0   1  -7    0.00    0.28
   0  -1  -7    0.01    0.35
   0  -1  -8   33.93    2.89
   0   1  -8   30.68    2.80
   0  -1  -9    0.86    0.53
   0  -1  -9    0.29    0.32
   0   1  -9    1.08    0.70
   0  -1 -10   -0.32    0.41
   0  -1  10    0.17    0.18
   0  -1  11    3.32    0.67
   0  -1 -11    3.74    0.92
   0   1 -11    2.84    0.89
   0   1  11    3.56    0.74
   0   1  12    0.34    0.28
   0  -1 -12    0.72    0.52
   0   1 -12    0.58    0.42
   0   1  13    5.01    0.70
   0   1 -13    3.58    0.66
   0  -2   0  125.17    1.76
   0  -2   1    2.20    0.23
   0   2  -1    2.18    0.29
   0  -2   1    2.05    0.26
   0   2  -2    2.20    0.39
   0  -2   2    2.55    0.30
   0  -2   2    2.44    0.35
   0  -2   3  297.98    4.62
   0   2  -3  298.11    5.14
   0   2  -4   25.63    1.74
   0  -2   4   25.22    1.64
   0   2  -5   81.47    3.52
   0  -2  -5   86.14    3.55
   0   2  -6   17.39    1.91
   0  -2  -6   14.22    1.60
   0   2  -7    1.99    0.74
   0  -2  -7    1.55    0.60
   0  -2  -8    1.12    0.55
   0   2  -8    1.34    0.78
   0   2  -9   13.64    2.04
   0  -2  -9   14.23    1.73
   0  -2  -9   13.42    2.00
   0  -2   9   13.35    2.04
   0  -2 -10    0.99    0.60
   0  -2 -11    2.47    0.78
   0   2  11    2.67    0.65
   0   2 -11    3.20    0.95
   0   2  12   20.48    1.64
   0  -2 -12   19.15    1.61
   0   2 -12   18.51    1.73
   0   2 -13   16.50    1.31
   0  -2 -13   16.51    1.20
   0   2  13   19.04    1.36
   0  -3   0   -0.07    0.08
   0   3  -1    6.38    0.54
   0  -3   1    5.96    0.43
   0  -3   1    6.05    0.50
   0   3  -2    6.05    0.67
   0  -3   2    6.24    0.46
   0  -3   2    6.74    0.63
   0  -3   2    5.84    0.56
   0  -3   3  143.87    3.24
   0   3  -3  144.95    3.64
   0  -3   4   26.33    1.81
   0  -3  -4   28.66    1.80
   0   3  -4   29.15    1.93
   0  -3   5   22.51    1.92
   0  -3  -5   25.54    1.97
   0   3  -5   25.02    1.92
   0   3  -6   76.70    3.72
   0  -3  -6   80.73    3.82
   0  -3  -7  164.53    5.96
   0   3  -7  169.39    5.96
   0   3  -8   21.22    2.42
   0  -3   8   18.36    2.27
   0  -3  -8   23.44    2.17
   0  -3  -8   22.37    2.35
   0   3  -9    5.63    1.33
   0  -3  -9    3.82    1.11
   0  -3  -9    6.16    1.18
   0  -3   9    6.78    1.45
   0  -3 -10    0.26    0.33
   0   3  11    6.80    1.06
   0  -3 -11    6.22    1.17
   0  -3 -12    1.05    0.41
   0   3  12    0.56    0.32
   0   3 -12    0.49    0.39
   0  -3 -13    8.11    0.84
   0   3 -13    8.41    0.99
   0   3  13   11.00    1.07
   0  -4   0  269.15    3.72
   0  -4   1    0.34    0.15
   0  -4   1    0.42    0.16
   0   4  -2   13.25    1.01
   0  -4   2   12.00    0.91
   0  -4   2   11.79    0.64
   0  -4   2   12.86    0.85
   0   4  -3   21.71    1.52
   0  -4   3   19.85    1.26
   0  -4   3   16.60    0.91
   0  -4   3   17.34    1.26
   0  -4   4   23.04    1.70
   0   4  -4   22.69    1.74
   0  -4   4   21.92    1.54
   0  -4   5    6.73    1.01
   0  -4   5    8.08    1.18
   0   4  -5    7.73    1.23
   0  -4  -5    8.73    1.18
   0  -4   6   45.38    3.01
   0  -4  -6   51.37    3.10
   0   4  -6   48.14    2.99
   0  -4   7   40.87    3.14
   0   4  -7   45.73    3.17
   0  -4  -7   43.77    3.11
   0  -4   8    0.57    0.49
   0  -4  -8    0.22    0.40
   0   4  -8    0.29    0.46
   0  -4  -8   -0.13    0.22
   0   4  -9    5.01    1.27
   0  -4   9    3.87    1.14
   0  -4  -9    5.40    1.35
   0  -4  -9    6.23    1.14
   0  -4 -10    0.39    0.20
   0   4  11    6.46    1.05
   0  -4 -11    4.42    0.99
   0   4 -12    0.32    0.28
   0  -4 -12    0.90    0.40
   0   4  12    0.84    0.38
   0  -4 -13    2.00    0.40
   0   4 -13    1.57    0.44
   0   4  13    2.09    0.46
   0  -5   0    0.24    0.24
   0  -5   1    2.82    0.38
   0  -5   1    2.98    0.46
   0  -5  -1    2.43    0.40
   0   5  -2  369.99    5.36
   0  -5   2  374.60    5.36
   0  -5   2  370.70    4.54
   0  -5   3    6.49    0.56
   0  -5   3    7.42    0.83
   0   5  -3    7.53    0.92
   0  -5   3    7.26    0.86
   0  -5   4    3.52    0.72
   0  -5   4    2.56    0.55
   0   5  -4    2.47    0.64
   0  -5  -5    0.46    0.38
   0  -5   5    0.67    0.38
   0  -5   5    0.58    0.47
   0   5  -5    0.62    0.54
   0  -5  -6    0.16    0.24
   0  -5   6    0.29    0.35
   0  -5   6   -0.05    0.26
   0   5  -6    0.13    0.29
   0  -5   7    3.55    0.90
   0   5  -7    3.88    1.02
   0  -5  -7    4.06    0.99
   0   5  -8    7.28    1.42
   0  -5  -8    9.16    1.23
   0  -5  -8    9.16    1.54
   0  -5   8    7.55    1.48
   0   5  -9    5.63    1.30
   0  -5   9    5.54    1.34
   0  -5  -9    5.23    1.21
   0  -5  -9    5.30    1.02
   0  -5 -10    6.88    1.17
   0   5  11    1.65    0.55
   0  -5 -11    1.04    0.44
   0   5 -12    1.62    0.54
   0   5  12    2.99    0.69
   0  -5 -12    2.74    0.53
   0   5  13    0.45    0.27
   0   5 -13    0.46    0.28
   0  -5 -13    0.69    0.25
   0  -6   0   41.16    1.84
   0  -6   1   11.24    0.75
   0  -6   1   11.36    0.95
   0  -6  -1   10.73    0.99
   0  -6   2    9.10    0.78
   0  -6   2    8.49    0.91
   0   6  -3   33.39    2.00
   0  -6   3   29.69    1.21
   0  -6   3   31.66    1.87
   0  -6   3   35.73    1.78
   0  -6   4   37.02    2.06
   0  -6   4   35.05    2.26
   0   6  -4   39.64    2.32
   0  -6   5   23.07    1.83
   0  -6   5   23.36    2.01
   0   6  -5   26.19    2.15
   0   6  -6    8.72    1.33
   0  -6   6    7.92    1.28
   0  -6  -6    8.18    1.26
   0  -6   6    7.03    1.16
   0  -6   7   86.89    4.68
   0  -6  -7   88.49    4.62
   0   6  -7   91.60    4.52
   0  -6   8    7.95    1.54
   0  -6  -8    7.02    1.09
   0   6  -8    6.04    1.41
   0  -6  -8    6.13    1.35
   0  -6   9    2.29    0.94
   0  -6  -9    5.04    1.01
   0  -6  -9    4.39    1.18
   0  -6 -10    1.63    0.59
   0  -6 -11    0.32    0.32
   0   6  11    0.14    0.25
   0  -6 -12    0.69    0.31
   0   6 -12    0.37    0.37
   0   6  12    0.69    0.35
   0   6  13    1.01    0.34
   0   6 -13    0.37    0.22
   0  -6 -13    0.38    0.19
   0  -7   0    0.00    0.14
   0  -7   1  169.24    3.19
   0  -7   1  172.24    4.08
   0  -7   2  127.43    3.08
   0  -7   2  117.02    3.50
   0   7  -3    5.60    0.78
   0  -7   3    5.64    0.87
   0  -7   3    6.02    0.58
   0  -7   3    6.05    0.78
   0   7  -4    4.71    0.85
   0  -7   4    5.16    0.89
   0  -7   4    5.30    0.83
   0   7  -5   43.87    2.78
   0  -7   5   36.84    2.31
   0  -7   5   39.52    2.71
   0  -7  -6   -0.07    0.30
   0   7  -6    0.06    0.19
   0  -7   6   -0.02    0.14
   0  -7   6    0.15    0.33
   0  -7   7   32.90    3.03
   0  -7  -7   29.21    2.69
   0   7  -7   35.87    2.98
   0  -7  -8   21.05    1.91
   0   7  -8   21.19    2.40
   0  -7   8   19.95    2.52
   0  -7  -8   18.85    2.29
   0  -7  -9    1.07    0.44
   0  -7 -10    0.85    0.48
   0  -7 -11    0.74    0.34
   0   7  11    0.95    0.41
   0   7  12    0.04    0.19
   0  -7 -12    0.16    0.14
   0   7 -13    3.09    0.55
   0   7  13    5.55    0.73
   0  -8   0   36.39    2.02
   0  -8   1    5.44    0.80
   0  -8   1    6.00    0.64
   0  -8  -1    6.07    0.93
   0  -8   2   54.27    2.60
   0  -8   2   56.24    2.15
   0  -8   3   17.42    1.37
   0  -8   3   15.18    1.47
   0  -8   4    2.88    0.61
   0   8  -4    1.91    0.56
   0  -8   4    3.29    0.76
   0   8  -5    8.28    1.28
   0  -8   5    8.86    1.17
   0  -8   5    8.64    1.35
   0  -8   6   25.25    2.51
   0  -8  -6   21.60    2.20
   0  -8   6   20.39    1.96
   0   8  -6   23.40    2.20
   0  -8  -7    0.39    0.31
   0  -8   7    0.53    0.31
   0  -8  -7    0.47    0.57
   0  -8   7    0.19    0.27
   0   8  -7    0.04    0.27
   0  -8   8    0.48    0.36
   0   8  -8    0.87    0.51
   0  -8   8    0.57    0.40
   0  -8  -8   -0.54    0.29
   0  -8  -8    0.59    0.45
   0  -8  -9    6.52    1.12
   0  -8 -10    1.37    0.49
   0  -8 -11    3.30    0.66
   0   8  11    3.81    0.85
   0  -8 -12    1.87    0.39
   0   8  12    2.31    0.60
   0   8 -13   -0.11    0.13
   0   8  13   -0.13    0.13
   0  -9   0    0.02    0.22
   0  -9   1  187.74    3.85
   0  -9   1  195.88    5.07
   0  -9   2   71.14    2.56
   0  -9   2   70.13    3.18
   0  -9   3    2.34    0.53
   0  -9   3    0.65    0.36
   0  -9   4   23.34    2.08
   0  -9   4   24.13    1.79
   0  -9   5   34.70    2.79
   0  -9   5   30.17    2.19
   0  -9  -6    0.64    0.50
   0  -9   6    0.90    0.48
   0  -9  -7    1.45    0.54
   0  -9  -7    2.94    0.92
   0  -9   7    1.35    0.62
   0  -9   7    1.36    0.63
   0   9  -7    0.97    0.41
   0  -9   8    3.07    1.04
   0  -9  -8    1.44    0.52
   0  -9  -9    0.97    0.44
   0  -9   9    0.97    0.48
   0  -9 -10    0.85    0.40
   0  -9 -11    2.13    0.49
   0   9  11    2.21    0.64
   0   9  12    1.16    0.38
   0   9  13    0.98    0.30
   0   9 -13    0.58    0.22
   0 -10   0    0.14    0.14
   0 -10   1    3.43    0.76
   0 -10   1    2.96    0.53
   0 -10   2    9.88    1.29
   0 -10   2    9.24    0.97
   0 -10   3    0.72    0.34
   0 -10   3    0.82    0.36
   0 -10   4    0.08    0.15
   0 -10   4    0.39    0.26
   0 -10   5   10.62    1.61
   0 -10  -6    2.38    0.56
   0 -10  -6    2.19    0.73
   0 -10   6    1.92    0.68
   0 -10   6    3.03    0.94
   0 -10   6    2.46    0.55
   0 -10   7    0.01    0.32
   0 -10  -7    1.26    0.37
   0 -10   7    0.41    0.40
   0 -10  -8    0.49    0.33
   0 -10   8    0.38    0.38
   0 -10   9    8.58    1.39
   0 -10  -9    6.95    1.06
   0 -10 -10    0.19    0.22
   0 -10 -11    1.43    0.37
   0  10  11    1.38    0.46
   0  10  12    0.14    0.14
   0 -11   0    0.12    0.12
   0 -11   0   -0.13    0.14
   0 -11   1    0.60    0.37
   0 -11   1    0.81    0.32
   0 -11   2    0.15    0.17
   0 -11   2    0.04    0.20
   0 -11   3    1.35    0.49
   0 -11   3    1.59    0.58
   0 -11   4    4.92    1.07
   0 -11   5    8.59    1.02
   0 -11   5    8.84    1.55
   0 -11   5    6.84    1.22
   0 -11   6    1.71    0.68
   0 -11   6    1.47    0.58
   0 -11  -6    1.38    0.44
   0 -11   6    1.31    0.39
   0 -11   7    7.08    1.56
   0 -11  -7    6.92    1.03
   0 -11   7    6.73    1.24
   0 -11   8    1.56    0.64
   0 -11  -8    1.65    0.49
   0 -11   9    2.11    0.77
   0 -11  -9    0.97    0.46
   0 -11 -10   12.84    1.18
   0  11  10   14.65    1.58
   0  11  11    3.28    0.69
   0  11  12    2.26    0.48
   0 -12   0    1.77    0.65
   0 -12   0    2.02    0.48
   0 -12   1    5.11    0.80
   0 -12   1    4.90    1.00
   0 -12   2    0.07    0.19
   0 -12   3   27.28    2.50
   0 -12   4   17.27    2.12
   0 -12   4   17.47    1.43
   0 -12   5    0.44    0.21
   0 -12  -5   -0.08    0.34
   0 -12   5    0.27    0.19
   0 -12   5    0.56    0.48
   0 -12   6    0.97    0.49
   0 -12   6    1.14    0.39
   0 -12   6    1.04    0.64
   0 -12  -6   -0.13    0.40
   0 -12   7   40.69    3.04
   0 -12  -7   41.10    2.42
   0 -12  -8   47.31    2.56
   0 -12   8   44.12    3.18
   0 -12   9   75.24    3.86
   0 -12  -9   82.59    3.14
   0 -12  10    6.05    0.97
   0  12  10    6.31    1.01
   0  12  11   -0.06    0.18
   0  12 -12    0.86    0.28
   0  12  12    1.70    0.37
   0 -13  -1   37.77    2.17
   0 -13   1   36.62    2.89
   0 -13   2    0.20    0.19
   0 -13   3    9.01    1.52
   0 -13   3    8.40    1.00
   0 -13   4    3.86    1.04
   0 -13  -4    3.45    0.64
   0 -13   4    3.81    0.70
   0 -13   5    8.88    1.38
   0 -13   5   11.38    1.23
   0 -13  -5   11.86    1.24
   0 -13   5   13.20    2.07
   0 -13  -6   -0.36    0.39
   0 -13   6    0.24    0.34
   0 -13   6    0.00    0.13
   0 -13  -7    0.74    0.48
   0 -13   7    1.16    0.47
   0 -13  -8    0.08    0.20
   0 -13   8   -0.45    0.36
   0  13   9    0.44    0.32
   0 -13   9    0.44    0.30
   0 -13  10    0.30    0.24
   0  13  10    0.29    0.27
   0  13  11    0.37    0.17
   0 -14   0    0.79    0.31
   0 -14   1    1.80    0.54
   0 -14   1    1.58    0.63
   0 -14  -1    1.72    0.44
   0 -14   2   14.09    1.92
   0 -14   2   14.38    1.33
   0 -14  -2   13.72    1.20
   0 -14   3   69.44    4.46
   0 -14  -3   64.72    2.88
   0 -14   3   68.45    2.93
   0 -14  -4   40.67    2.29
   0 -14   4   34.86    2.73
   0 -14   4   36.89    2.23
   0 -14   5   45.21    2.49
   0 -14   5   42.22    3.05
   0 -14  -5   46.78    2.48
   0 -14   5   46.78    3.99
   0 -14   6    5.45    1.12
   0 -14   6    4.34    0.79
   0 -14  -6    4.10    0.68
   0 -14   7   17.17    1.97
   0 -14  -7   18.81    1.55
   0 -14   8    5.58    1.04
   0 -14   9    2.32    0.64
   0  14   9    3.16    0.67
   0  14  10    0.39    0.27
   0 -14  10    0.79    0.36
   0  14  11    0.55    0.23
   0 -15   0    8.87    0.99
   0 -15   1    2.58    0.97
   0 -15  -1    2.26    0.51
   0 -15   1    1.89    0.49
   0 -15   2   18.28    2.30
   0 -15   2   18.31    1.51
   0 -15  -2   18.36    1.41
   0 -15   3   12.77    1.29
   0 -15   3   13.54    2.05
   0 -15   4   66.16    3.78
   0 -15   4   68.96    3.06
   0 -15  -5   77.23    3.28
   0 -15   5   81.78    3.35
   0 -15   5   79.39    4.19
   0 -15   6   12.82    1.35
   0 -15   6   12.07    1.69
   0 -15  -6   11.81    1.25
   0 -15   7    1.38    0.63
   0 -15   8    3.74    0.80
   0 -15   9    5.52    0.93
   0  15   9    5.22    0.76
   0 -15  10    0.28    0.22
   0  15  10    0.34    0.20
   0 -16   0    3.16    0.64
   0 -16   1    0.24    0.22
   0 -16  -1   -0.03    0.16
   0 -16   2    0.12    0.12
   0 -16   2    0.04    0.32
   0 -16  -2   -0.14    0.19
   0 -16   3   -0.42    0.39
   0 -16   3   -0.04    0.13
   0 -16   4    0.32    0.34
   0 -16   4    0.40    0.26
   0 -16   5    0.52    0.32
   0 -16   5    0.31    0.33
   0 -16   6    1.99    0.52
   0 -16   6    3.08    0.95
   0 -16   7    0.46    0.39
   0 -16   8   -0.03    0.25
   0 -16   9    0.18    0.20
   0 -17   0    0.29    0.14
   0 -17  -1    0.73    0.28
   0 -17   1    0.26    0.32
   0 -17   1    0.54    0.25
   0 -17  -2    0.49    0.21
   0 -17   2    0.45    0.25
   0 -17   3    3.34    0.86
   0 -17   3    3.07    0.63
   0 -17   4    0.28    0.24
   0 -17   4    0.02    0.23
   0 -17   5   -0.01    0.46
   0 -17   5    0.02    0.12
   0 -17   6   -0.14    0.28
   0 -17   7    0.48    0.40
   0 -17   8   -0.02    0.29
   0 -17   9    1.28    0.34
   0 -18   0    1.63    0.46
   0 -18   1   10.35    1.14
   0 -18  -1    9.63    1.06
   0 -18   1    9.18    1.36
   0 -18  -2    5.97    0.78
   0 -18   2    7.48    0.98
   0 -18   2    6.25    1.21
   0 -18   3   23.28    2.23
   0 -18   3   22.02    1.69
   0 -18   4    3.31    0.81
   0 -18   4    4.53    0.77
   0 -18   5    1.40    0.40
   0 -18   5    2.05    0.60
   0 -18   6    4.44    0.89
   0 -18   7    0.21    0.21
   0 -18   8    2.63    0.60
   0 -18   9    0.60    0.23
   0 -19   0    0.20    0.16
   0 -19   1   -0.03    0.14
   0 -19  -1    0.22    0.17
   0 -19   1   -0.08    0.37
   0 -19   2    0.20    0.22
   0 -19   2    0.08    0.13
   0 -19  -2    0.03    0.12
   0 -19   3    3.26    0.78
   0 -19   3    4.95    0.78
   0 -19   4   -0.36    0.22
   0 -19   4   -0.11    0.18
   0 -19   5    0.02    0.17
   0 -19   5    0.04    0.28
   0 -19   6    0.22    0.30
   0 -19   7    0.75    0.35
   0 -19   8    0.27    0.17
   0 -20   0    1.49    0.39
   0 -20   1    0.41    0.25
   0 -20  -1    0.11    0.10
   0 -20   2    0.95    0.45
   0 -20   2    0.68    0.30
   0 -20   3    3.80    0.85
   0 -20   3    4.85    0.71
   0 -20   4    0.03    0.18
   0 -20   4    0.09    0.23
   0 -20   5    0.18    0.21
   0 -20   6    1.45    0.45
   0 -20   7   -0.15    0.13
   0 -21   0    0.26    0.23
   0 -21  -1    0.95    0.28
   0 -21   1    0.73    0.27
   0 -21   2    1.53    0.38
   0 -21   2    1.14    0.42
   0 -21   3    1.29    0.33
   0 -21   3    0.38    0.25
   0 -21   4    0.53    0.31
   0 -21   5    0.29    0.28
   0 -21   6   -0.16    0.15
   0 -22   0    5.18    0.60
   0 -22   1    1.23    0.31
   0 -22   2   -0.13    0.17
   0 -22   3    0.78    0.30
   0 -22   4    0.03    0.17
   1   0 -13    0.35    0.21
  -1   0  12    0.04    0.12
   1   0 -12   -0.14    0.26
  -1   0  11    7.39    1.06
   1   0 -11    5.69    1.24
  -1   0  10   -0.27    0.29
   1   0 -10   -0.17    0.42
   1   0  -9    7.41    1.47
  -1   0   9    4.71    0.82
   1   0  -8   -0.24    0.32
   1   0  -7    3.07    0.83
   1   0  -6   -0.22    0.31
   1   0  -5   47.43    2.57
   1   0  -4   -0.03    0.20
   1   0  -3  222.66    4.16
  -1   0   2   -0.02    0.07
   1   0   0    0.05    0.05
   1   0   1 1470.28    6.80
  -1   0  -1 1465.60    6.87
   1   0   2   -0.01    0.06
  -1   0  -2   -0.02    0.10
  -1   0  -3    8.25    0.92
   1   0   3    8.12    0.86
  -1   0  -4   -0.05    0.16
   1   0   4    0.25    0.18
  -1   0  -5   13.61    1.44
  -1   0  -6    0.11    0.21
  -1   0  -7   28.83    2.52
  -1   0  -8   -0.08    0.24
  -1   0  -9   17.36    2.24
  -1   0 -10   -0.38    0.49
   1   0  11    0.78    0.37
  -1   0 -11    0.91    0.40
  -1   0 -12    0.07    0.24
  -1   0 -13    4.64    0.64
   1   1 -13    0.27    0.20
   1  -1 -13    0.66    0.30
   1  -1 -12    0.04    0.34
  -1  -1  12    0.26    0.18
  -1   1  12   -0.04    0.14
   1   1 -12    0.14    0.31
  -1   1  11    0.95    0.36
   1  -1 -11   -0.43    0.36
  -1  -1  11    0.66    0.36
   1   1 -11    0.63    0.53
   1  -1 -10    3.79    0.92
  -1  -1  10    2.55    0.61
  -1   1  10    2.57    0.63
   1   1  -9    0.44    0.38
   1  -1  -9    0.64    0.47
  -1   1   9    0.44    0.34
  -1  -1   9   -0.12    0.22
  -1  -1   9    0.52    0.27
   1   1  -8    5.31    1.15
   1  -1  -8    4.45    1.05
   1   1  -7   65.86    3.67
   1  -1  -7   66.95    3.76
   1  -1  -6   22.55    2.06
   1   1  -6   21.99    1.95
   1   1  -5   38.73    2.52
   1  -1  -5   44.40    2.50
   1   1  -4  715.94    8.87
   1  -1  -4  766.51    9.51
  -1  -1   3  255.45    4.21
   1   1  -3  275.94    4.83
   1   1  -2    8.30    0.68
  -1  -1   2    7.91    0.62
  -1  -1   1   86.86    1.38
  -1   1   1   85.81    1.70
  -1   1   0   16.59    0.53
   1   1   0   18.81    0.44
  -1  -1  -1   48.61    1.18
  -1   1  -1   44.61    1.33
   1   1   1   47.35    1.21
  -1   1  -2  210.28    3.68
  -1  -1  -2  219.17    3.63
   1   1   2  216.88    3.45
   1   1   3  191.37    4.03
   1  -1   3  185.99    3.90
  -1   1  -3  188.68    4.22
  -1  -1  -3  191.64    4.18
   1  -1   4   52.89    2.47
  -1  -1  -4   54.03    2.55
   1  -1   5  220.78    5.99
  -1   1  -5  228.00    5.94
  -1  -1  -5  223.98    5.74
  -1  -1  -6   33.49    2.50
  -1   1  -6   32.07    2.44
  -1  -1  -7   24.62    2.36
  -1   1  -7   21.60    2.26
  -1   1  -8    7.49    1.40
  -1  -1  -8    7.60    1.40
  -1   1  -9   13.10    1.99
  -1  -1  -9   12.81    1.58
  -1  -1  -9   13.23    1.98
  -1  -1 -10    0.30    0.23
  -1   1 -10   -0.12    0.27
   1   1  11   -0.21    0.15
  -1  -1 -11   -0.19    0.25
  -1   1 -11    0.17    0.26
   1   1  12    0.26    0.24
  -1   1 -12   -0.08    0.40
  -1  -1 -12    0.05    0.36
  -1   1 -13    5.57    0.76
  -1  -1 -13    5.77    0.71
   1   2 -13    1.11    0.39
  -1   2  13    1.07    0.38
   1  -2 -13    1.29    0.37
   1   2 -12   24.50    2.05
   1  -2 -12   26.74    1.90
   1  -2 -11   16.51    1.73
  -1   2  11   17.01    1.63
   1  -2 -10   18.35    1.99
  -1   2  10   16.72    1.65
  -1  -2  10   16.76    1.54
  -1  -2   9   -0.14    0.16
   1   2  -9   -0.50    0.42
  -1  -2   9    0.23    0.36
   1  -2  -9    0.15    0.27
   1  -2  -9   -0.42    0.41
  -1  -2   8    6.38    1.26
   1  -2  -8    6.29    1.28
   1   2  -8    8.84    1.62
   1  -2  -7   12.94    1.70
   1   2  -7   15.58    1.81
   1  -2  -6    0.39    0.40
   1   2  -6   -0.04    0.28
   1  -2  -5    3.88    0.77
   1   2  -5    4.00    0.77
   1   2  -4   68.86    2.80
  -1  -2   3  469.32    5.53
   1   2  -3  503.36    6.41
  -1  -2   2 1547.27    8.32
   1   2  -2 1534.01    9.21
  -1  -2   2 1545.18    8.50
  -1  -2   1    3.35    0.19
   1   2  -1    3.43    0.32
  -1  -2   0  130.48    2.04
   1  -2   0  128.53    1.57
  -1  -2  -1    0.77    0.16
  -1   2  -1    0.73    0.21
  -1  -2  -2    3.93    0.50
  -1   2  -2    3.16    0.51
   1  -2   3    6.84    0.83
  -1   2  -3    7.78    0.91
  -1  -2  -3    7.05    0.84
  -1  -2  -4   61.18    2.68
   1  -2   4   58.26    2.57
  -1   2  -4   58.47    2.70
  -1  -2  -5   -0.12    0.51
  -1   2  -5    0.12    0.31
   1  -2   5    0.20    0.27
  -1  -2  -6   71.22    3.56
  -1   2  -6   67.50    3.55
  -1   2  -7   17.12    2.02
  -1  -2  -7   16.90    1.93
  -1  -2  -8    9.47    1.63
  -1  -2  -8    8.02    1.34
  -1   2  -8    8.22    1.48
  -1  -2  -9    1.66    0.62
  -1  -2  -9    2.33    0.63
  -1   2  -9    1.99    0.81
  -1  -2 -10    1.01    0.56
  -1   2 -11    3.87    0.92
   1   2  11    4.01    0.82
  -1  -2 -11    3.05    0.81
  -1   2 -12   17.51    1.64
   1   2  12   18.06    1.49
  -1  -2 -12   18.34    1.55
  -1  -2 -13   16.19    1.16
  -1   2 -13   14.63    1.20
   1   2  13   15.66    1.14
   1   3 -13    6.94    0.88
   1  -3 -13    7.35    0.75
   1  -3 -12   15.76    1.43
  -1   3  12   17.83    1.61
   1   3 -12   13.81    1.54
  -1   3  11   20.09    1.79
   1  -3 -11   21.48    1.92
  -1   3  10   26.19    2.06
   1  -3 -10   22.82    2.20
   1   3  -9    3.51    1.08
  -1  -3   9    1.75    0.70
   1  -3  -9    2.53    0.91
   1  -3  -9    1.79    0.71
  -1  -3   8    4.64    1.09
   1   3  -8    3.90    1.05
   1  -3  -8    4.14    1.15
  -1  -3   7   81.58    4.13
   1  -3  -7   91.24    4.50
   1   3  -7   82.23    4.18
   1   3  -6   47.16    2.93
   1  -3  -6   48.48    3.00
  -1  -3   6   42.71    2.72
  -1  -3   5    0.10    0.20
   1   3  -5   -0.02    0.17
  -1  -3   4   73.78    2.55
  -1  -3   4   75.02    2.79
  -1  -3   3   56.35    1.92
  -1  -3   3   52.22    1.86
   1   3  -3   54.99    2.17
  -1  -3   3   54.44    1.99
  -1  -3   2   10.63    0.62
   1   3  -2    9.98    0.80
  -1  -3   2    9.43    0.72
  -1  -3   2   10.08    0.75
  -1  -3   1  191.16    2.89
  -1  -3   1  182.10    1.63
   1  -3   0   41.81    1.14
  -1  -3   0   45.27    1.43
   1  -3   1    2.13    0.33
   1  -3   1    2.08    0.31
   1  -3   2   34.93    1.49
  -1   3  -2   37.62    1.85
  -1   3  -3   33.84    1.91
  -1  -3  -3   31.14    1.74
   1  -3   3   30.52    1.64
  -1   3  -4    5.66    0.92
   1  -3   4    5.87    0.90
  -1  -3  -4    7.37    0.99
  -1  -3  -5    4.21    0.83
  -1   3  -5    4.29    0.93
   1  -3   5    4.08    0.83
  -1  -3  -6   95.28    4.18
   1  -3   6   95.12    4.34
  -1   3  -6   87.51    4.22
  -1   3  -7    5.23    1.15
  -1  -3  -7    6.70    1.22
  -1  -3  -8   29.23    2.81
  -1  -3  -8   29.64    2.25
  -1   3  -8   29.44    2.82
   1  -3   9   26.13    2.98
  -1   3  -9   30.29    2.93
  -1  -3  -9   25.67    2.73
  -1  -3  -9   27.38    2.28
  -1  -3 -10    1.23    0.58
  -1   3 -11    0.11    0.27
  -1  -3 -11    0.27    0.31
   1   3  12    2.60    0.63
  -1  -3 -12    2.62    0.59
  -1   3 -12    4.10    0.91
   1   3  13    9.09    0.90
  -1  -3 -13    8.60    0.81
  -1   3 -13    8.17    0.90
   1   4 -13    0.45    0.25
  -1   4  13    0.41    0.22
   1   4 -12    0.80    0.46
  -1   4  12    0.32    0.31
   1  -4 -12    0.50    0.25
  -1   4  11    0.14    0.21
   1  -4 -11    0.27    0.30
   1  -4 -10    8.32    1.38
  -1   4  10    9.87    1.29
   1   4  -9   -0.62    0.35
  -1  -4   9    0.29    0.23
   1  -4  -9   -0.04    0.27
   1  -4  -9   -0.18    0.51
   1   4  -8    0.49    0.49
  -1  -4   8    0.19    0.20
   1  -4  -8    0.39    0.30
   1  -4  -7   24.14    2.39
   1   4  -7   23.75    2.23
  -1  -4   7   23.87    2.23
   1   4  -6    6.18    1.05
  -1  -4   6    3.98    0.81
   1  -4  -6    5.72    1.04
   1   4  -5    5.91    0.96
  -1  -4   5    4.95    0.86
  -1  -4   4   15.83    1.22
  -1  -4   4   16.52    1.20
   1   4  -4   15.39    1.38
  -1  -4   4   15.68    1.30
  -1  -4   3   23.75    1.40
  -1  -4   3   22.13    1.24
  -1  -4   3   23.72    1.24
   1   4  -3   26.50    1.53
  -1  -4   2  146.34    3.08
   1   4  -2  149.29    3.06
  -1  -4   2  150.89    2.45
  -1  -4   1   13.65    0.91
   1   4  -1   14.21    0.74
   1  -4  -1   13.41    0.80
  -1  -4   1   14.66    0.58
  -1  -4   0    1.25    0.29
   1  -4   0    1.24    0.24
   1  -4   1  528.75    5.18
   1  -4   1  531.99    5.31
   1  -4   2    0.62    0.35
  -1   4  -2    0.47    0.34
   1  -4   2    0.59    0.26
   1  -4   3    2.73    0.53
  -1   4  -3    3.43    0.63
  -1  -4  -3    3.85    0.64
  -1   4  -4   22.71    1.85
   1  -4   4   15.37    1.39
   1  -4   5    0.13    0.21
  -1   4  -5    0.33    0.42
  -1  -4  -5   -0.02    0.21
  -1   4  -6    0.58    0.40
  -1  -4  -6    1.57    0.57
   1  -4   6    0.91    0.41
  -1   4  -7    0.27    0.35
  -1  -4  -7    0.02    0.30
   1  -4   7   -0.18    0.29
  -1   4  -8    0.88    0.49
  -1  -4  -8    0.92    0.44
   1  -4   8    0.86    0.59
  -1  -4  -8    0.21    0.24
  -1   4  -9   19.14    2.34
  -1  -4  -9   17.81    2.31
  -1  -4  -9   18.94    1.87
   1  -4   9   20.38    2.64
  -1  -4 -10    6.85    1.25
  -1  -4 -11    0.12    0.19
   1   4  12    0.32    0.28
  -1  -4 -12    0.04    0.20
  -1   4 -12   -0.01    0.25
   1   4  13    5.52    0.71
  -1   4 -13    3.90    0.63
  -1  -4 -13    5.33    0.62
  -1   5  13    1.09    0.39
   1   5 -13    0.98    0.36
  -1   5  12    0.18    0.28
   1  -5 -12    0.33    0.21
   1   5 -12    0.15    0.33
   1  -5 -11    1.14    0.45
  -1   5  11    0.84    0.40
   1  -5 -10    3.53    0.87
  -1   5  10    3.35    0.76
   1   5  -9   11.81    1.94
   1  -5  -9   13.57    1.68
   1  -5  -9   11.07    1.85
  -1  -5   9   13.91    2.08
  -1  -5   8    0.91    0.56
   1  -5  -8    0.75    0.53
   1   5  -8    1.05    0.58
   1  -5  -7    0.67    0.50
   1   5  -7    0.90    0.53
  -1  -5   7    0.90    0.48
   1   5  -6    0.48    0.23
   1  -5  -6    0.64    0.46
  -1  -5   6    0.12    0.23
  -1  -5   5   10.82    1.27
   1   5  -5   12.60    1.40
   1   5  -4   75.95    3.03
  -1  -5   4   70.67    2.91
  -1  -5   4   68.66    2.47
  -1  -5   4   72.39    2.64
   1   5  -3  159.37    3.99
  -1  -5   3  154.67    3.15
  -1  -5   2   75.61    1.82
  -1  -5   2   71.87    2.35
   1   5  -2   70.88    2.16
  -1  -5   1  107.33    1.78
   1  -5  -1  110.04    2.60
  -1  -5   0  137.98    3.13
   1  -5   0  124.76    2.74
   1  -5   1   10.81    0.85
   1  -5   1   11.54    0.81
   1  -5   2  147.20    3.49
   1  -5   2  146.84    3.33
   1  -5   3    6.62    0.86
   1  -5   3    5.50    0.79
  -1   5  -3    6.29    0.90
  -1  -5  -4   33.45    2.14
  -1   5  -4   34.42    2.22
   1  -5   4   28.21    1.91
   1  -5   4   27.47    2.01
  -1   5  -5  333.41    7.60
   1  -5   5  276.18    6.96
   1  -5   5  285.06    7.36
  -1  -5  -5  334.16    7.44
  -1   5  -6   52.12    3.30
   1  -5   6   51.31    3.46
  -1  -5  -6   53.87    3.30
   1  -5   6   56.34    3.40
  -1  -5  -7   37.24    2.95
  -1   5  -7   37.52    2.95
   1  -5   7   36.39    3.10
  -1   5  -8    1.55    0.72
   1  -5   8    1.82    0.72
  -1  -5  -8    1.25    0.51
  -1  -5  -8    1.28    0.64
  -1  -5  -9    0.13    0.24
   1  -5   9   -0.02    0.45
  -1  -5  -9   -0.22    0.33
  -1   5  -9   -0.43    0.37
  -1  -5 -10    0.62    0.40
  -1  -5 -11    5.28    0.91
  -1  -5 -12    0.01    0.17
   1   5  12    0.18    0.24
  -1   5 -12   -0.17    0.23
  -1  -5 -13    0.57    0.20
  -1   5 -13    0.63    0.31
   1   5  13    0.57    0.23
  -1   6  13    0.18    0.16
   1   6 -13    0.16    0.24
  -1   6  12    7.30    1.05
  -1   6  11    6.31    1.11
   1  -6 -11    5.64    0.90
  -1   6  10    1.34    0.51
   1  -6 -10    1.32    0.54
   1   6  -9    6.19    1.45
  -1  -6   9    7.36    1.51
   1  -6  -9    5.95    1.37
   1  -6  -9    5.33    1.02
   1  -6  -8    1.12    0.60
   1  -6  -8    0.38    0.33
   1   6  -8    1.00    0.42
  -1  -6   8    1.19    0.60
  -1  -6   8    0.47    0.44
  -1  -6   7   14.50    1.85
   1   6  -7   12.84    1.80
   1  -6  -7   14.21    1.93
   1   6  -6    6.28    1.19
  -1  -6   6    7.24    1.20
  -1  -6   5  239.06    5.56
   1   6  -5  250.31    6.28
  -1  -6   4   28.90    1.96
  -1  -6   4   27.64    1.62
   1   6  -4   28.04    1.88
  -1  -6   4   27.41    1.57
  -1  -6   3   76.74    2.88
   1   6  -3   73.26    2.65
  -1  -6   3   80.35    2.34
  -1  -6   3   69.96    2.33
   1   6  -2   10.00    0.83
  -1  -6   2   10.60    0.73
  -1  -6   2    8.63    0.88
  -1  -6   1   87.01    2.72
   1  -6  -1   83.37    2.56
  -1  -6   1   80.92    1.73
  -1  -6   0   50.33    2.09
   1  -6   0   47.63    1.90
   1  -6   1  117.43    2.75
   1  -6   1  123.75    3.11
   1  -6   2    1.60    0.41
   1  -6   2    1.99    0.41
  -1   6  -3  185.35    4.76
   1  -6   3  187.16    4.53
   1  -6   4    0.17    0.22
  -1  -6  -4    0.70    0.35
   1  -6   4    0.09    0.21
  -1   6  -4    0.17    0.34
   1  -6   5   16.67    1.75
   1  -6   5   18.69    1.81
  -1  -6  -5   22.18    1.95
  -1   6  -5   20.67    1.97
  -1   6  -6   22.70    2.27
   1  -6   6   20.37    2.14
  -1  -6  -6   19.21    2.00
   1  -6   6   20.22    2.08
   1  -6   7  199.68    7.29
  -1   6  -7  207.46    7.10
   1  -6   7  182.28    7.48
  -1  -6  -7  197.39    6.92
  -1  -6  -8   30.94    2.21
   1  -6   8   24.83    2.79
  -1   6  -8   28.06    2.85
  -1  -6  -8   23.33    2.46
  -1  -6  -9    3.92    0.94
  -1  -6 -10    2.76    0.71
  -1  -6 -11    0.76    0.36
  -1   6 -12   -0.20    0.26
  -1  -6 -12    0.16    0.15
   1   6  12    0.18    0.14
   1   6  13    0.00    0.14
  -1   6 -13    0.24    0.20
  -1  -6 -13   -0.26    0.14
   1   7 -13    4.35    0.65
  -1   7  13    8.60    0.95
  -1   7  12    1.10    0.43
  -1   7  11    2.23    0.65
  -1   7  10    0.01    0.22
   1  -7 -10    0.23    0.31
   1  -7  -9    2.80    0.82
  -1  -7   8    2.16    0.85
  -1  -7   8    1.53    0.66
   1   7  -8    1.24    0.62
   1  -7  -8    1.21    0.63
  -1  -7   7    0.50    0.54
   1  -7  -7    0.05    0.26
   1   7  -7   -0.78    0.44
   1   7  -6  125.53    4.94
  -1  -7   6  120.28    5.07
   1   7  -5   17.37    1.66
  -1  -7   5   14.19    1.32
  -1  -7   5   16.99    1.76
  -1  -7   4    5.61    0.72
   1   7  -4    4.78    0.81
  -1  -7   4    6.36    0.98
  -1  -7   4    4.99    0.68
  -1  -7   3    5.15    0.67
  -1  -7   3    5.17    0.80
   1   7  -3    5.28    0.74
  -1  -7   3    5.00    0.62
  -1  -7   2    2.28    0.48
  -1  -7   2    2.15    0.35
  -1  -7   1    0.52    0.15
  -1  -7   1    0.25    0.21
   1  -7  -1    0.04    0.11
   1  -7   0   56.88    2.26
  -1  -7   0   55.21    2.38
   1  -7   1    7.85    0.77
   1  -7   1    7.15    0.84
   1  -7   2  318.09    5.91
   1  -7   2  340.44    5.52
   1  -7   3    7.02    0.92
   1  -7   3    7.68    1.00
   1  -7   4   19.06    1.80
  -1   7  -4   21.32    1.80
   1  -7   4   18.40    1.65
  -1   7  -5    9.77    1.40
   1  -7   5    9.83    1.43
   1  -7   5    9.59    1.28
  -1  -7  -5    9.97    1.33
  -1  -7  -6    1.54    0.62
   1  -7   6    0.82    0.48
   1  -7   6    1.78    0.72
  -1   7  -6    0.95    0.45
  -1  -7  -7    7.11    1.34
  -1  -7  -7   10.38    1.27
   1  -7   7    6.90    1.40
   1  -7   7    8.78    1.62
  -1   7  -7    8.33    1.51
  -1   7  -8   20.50    2.36
  -1  -7  -8   23.85    1.98
   1  -7   8   21.14    2.73
  -1  -7  -9   -0.06    0.35
  -1  -7 -10    3.99    0.86
  -1  -7 -11    0.83    0.34
  -1  -7 -12    0.17    0.17
  -1   7 -12    0.01    0.20
   1   7  12   -0.21    0.22
  -1   7 -13    0.31    0.22
   1   7  13    0.01    0.11
  -1   8  13    0.27    0.26
   1   8 -13   -0.32    0.22
  -1   8  12    0.22    0.25
  -1   8  11    0.94    0.37
  -1   8  10    0.09    0.23
  -1  -8   9    0.03    0.22
  -1  -8   8    5.33    1.35
  -1  -8   8    6.57    1.29
   1  -8  -8    4.33    1.15
   1   8  -8    3.58    1.04
  -1  -8   7   -0.22    0.32
   1  -8  -7    0.92    0.60
  -1  -8   7    0.41    0.39
   1   8  -7   -0.15    0.26
   1   8  -6    0.35    0.40
  -1  -8   6    0.67    0.44
   1   8  -5    2.84    0.68
  -1  -8   5    3.75    0.84
  -1  -8   4   10.11    1.02
  -1  -8   4   10.92    1.36
   1   8  -4   10.19    1.16
  -1  -8   4   10.10    1.00
  -1  -8   3   14.64    1.07
  -1  -8   3   12.61    1.09
  -1  -8   3   12.84    1.33
  -1  -8   2  123.54    2.78
  -1  -8   2  119.98    3.93
  -1  -8   1   30.09    1.90
   1  -8  -1   32.10    1.93
  -1  -8   1   29.05    1.25
  -1  -8   0  228.51    5.26
   1  -8   0  233.09    5.08
   1  -8   1   15.29    1.14
   1  -8   1   15.39    1.35
   1  -8   2   78.93    2.85
   1  -8   2   74.49    3.03
   1  -8   3   18.93    1.70
   1  -8   3   18.83    1.57
   1  -8   4   84.94    3.60
   1  -8   4   82.55    3.87
   1  -8   5    0.89    0.47
   1  -8   5    0.29    0.43
  -1  -8  -5    0.42    0.25
  -1   8  -6    0.92    0.45
  -1  -8  -6    1.33    0.59
   1  -8   6    0.75    0.47
   1  -8   6    1.14    0.54
   1  -8   7   -0.07    0.42
  -1   8  -7    0.30    0.29
   1  -8   7    0.38    0.26
   1  -8   7    0.19    0.29
  -1  -8  -7    0.23    0.27
  -1  -8  -8    1.33    0.53
   1  -8   8    0.10    0.46
  -1  -8  -9    0.28    0.28
  -1  -8 -10    8.56    1.18
  -1  -8 -11    0.03    0.17
  -1  -8 -12    2.10    0.41
   1   8  12    3.27    0.66
  -1   8 -12    1.69    0.50
   1   8  13    0.11    0.11
  -1   8 -13   -0.11    0.13
   1   9 -13    0.06    0.12
  -1   9  13    0.69    0.26
  -1   9  12    1.45    0.45
  -1   9  11    2.84    0.69
  -1   9  10    0.41    0.32
  -1  -9   9   28.41    2.51
   1   9  -8    4.01    0.97
  -1  -9   8    5.18    1.21
  -1  -9   8    3.97    1.15
   1  -9  -8    3.02    0.99
  -1  -9   7    2.17    0.51
   1   9  -7    1.76    0.68
   1  -9  -7    1.73    0.60
  -1  -9   7    1.95    0.75
  -1  -9   7    1.83    0.66
   1   9  -6    1.46    0.60
  -1  -9   6    1.59    0.68
  -1  -9   5    4.73    1.01
   1   9  -5    4.10    0.85
  -1  -9   4   36.24    2.54
  -1  -9   3   22.72    1.92
  -1  -9   3   19.86    1.45
  -1  -9   2    0.46    0.15
  -1  -9   2    0.21    0.16
  -1  -9   1  361.45    7.12
   1  -9  -1  346.83    6.85
  -1  -9   1  359.66    4.77
  -1  -9   0   98.98    3.69
   1  -9   0   96.36    3.50
   1  -9   1    1.61    0.38
   1  -9   1    1.36    0.44
   1  -9   2  138.63    4.50
   1  -9   2  141.72    4.00
   1  -9   3  155.59    5.05
   1  -9   3  157.99    4.65
   1  -9   4   12.76    1.61
   1  -9   4   12.28    1.43
   1  -9   5   13.68    1.62
   1  -9   5   16.19    1.99
   1  -9   6    3.34    0.87
  -1  -9  -6    5.16    0.84
   1  -9   6    5.54    1.23
   1  -9   7    4.79    1.00
   1  -9   7    4.95    1.12
  -1  -9  -7    8.08    1.11
   1  -9   7    7.69    1.66
  -1  -9  -8   -0.12    0.29
   1  -9   8   -0.28    0.26
  -1  -9  -9    0.14    0.33
  -1  -9 -10    0.45    0.31
   1   9  11    3.28    0.75
  -1  -9 -11    3.99    0.64
  -1   9 -12    0.13    0.16
  -1  -9 -12   -0.17    0.16
   1   9  12    0.21    0.18
  -1  10  12    0.01    0.12
  -1  10  11    7.46    1.05
  -1  10  10    1.20    0.43
  -1 -10  10    1.16    0.36
  -1 -10   9   11.75    1.68
  -1 -10   8    3.97    1.03
  -1 -10   7    0.04    0.31
  -1 -10   7    0.01    0.35
   1 -10  -7   -0.29    0.46
  -1 -10   7    0.14    0.12
  -1 -10   6   -0.07    0.20
  -1 -10   6   -0.34    0.37
  -1 -10   6    0.22    0.13
  -1 -10   5   10.41    1.57
  -1 -10   4    0.78    0.36
  -1 -10   3   14.02    1.61
  -1 -10   2   24.93    2.02
  -1 -10   1    8.17    0.79
  -1 -10   1    8.57    1.17
   1 -10   0   32.37    1.82
   1 -10   0   30.10    2.10
  -1 -10   0   30.70    2.21
   1 -10   1    0.28    0.27
   1 -10   1    0.36    0.22
   1 -10   2    3.71    0.66
   1 -10   2    1.96    0.55
   1 -10   3    1.08    0.45
   1 -10   3    1.36    0.50
   1 -10   4    2.57    0.67
   1 -10   4    2.68    0.75
   1 -10   5   -0.27    0.41
   1 -10   5    0.21    0.24
   1 -10   6    0.69    0.39
   1 -10   6    0.99    0.42
  -1 -10  -6    1.09    0.43
   1 -10   6    2.14    0.84
   1 -10   7    8.34    1.45
   1 -10   7    8.82    1.77
  -1 -10  -7    8.15    1.12
   1 -10   8    0.37    0.38
  -1 -10  -8   -0.01    0.26
  -1 -10  -9    0.02    0.17
  -1 -10 -10    0.70    0.35
   1  10  11    5.32    0.88
  -1 -10 -11    3.66    0.59
  -1 -10 -12    0.94    0.22
  -1  10 -12    0.61    0.28
   1  10  12    1.15    0.34
  -1  11  12    2.78    0.52
  -1  11  11   11.62    1.24
  -1 -11  10    1.37    0.58
  -1  11  10    1.66    0.54
  -1 -11   9   21.89    2.17
  -1  11   9   21.30    2.02
  -1 -11   8    9.08    1.51
  -1 -11   7    2.50    0.57
  -1 -11   7    2.59    0.81
   1 -11  -7    2.07    0.80
  -1 -11   7    3.53    1.11
  -1 -11   6   11.21    1.81
  -1 -11   6   11.69    1.17
  -1 -11   6   10.83    1.54
  -1 -11   5    2.94    0.92
  -1 -11   5    3.29    0.78
  -1 -11   5    3.60    0.62
  -1 -11   4   11.73    1.65
  -1 -11   3   58.40    3.44
  -1 -11   2    3.63    0.84
  -1 -11   1   28.07    2.25
   1 -11   0    0.90    0.37
  -1 -11   0    1.04    0.42
   1 -11   0    0.95    0.43
   1 -11   1    0.73    0.31
   1 -11   1    0.96    0.44
   1 -11   2    0.15    0.19
   1 -11   2    0.43    0.28
   1 -11   3    2.11    0.68
   1 -11   3    1.53    0.51
   1 -11   4    0.58    0.36
   1 -11   4    0.56    0.50
   1 -11   5    1.66    0.47
   1 -11   5    1.05    0.50
   1 -11   5    1.33    0.56
  -1 -11  -5    0.57    0.22
   1 -11   6    0.45    0.48
   1 -11   6    0.19    0.22
   1 -11   6    0.38    0.45
  -1 -11  -6    0.10    0.17
  -1 -11  -7   14.53    1.53
   1 -11   7   13.25    1.76
   1 -11   7   14.40    2.30
  -1 -11  -8    0.29    0.28
   1 -11   8    0.21    0.42
   1 -11   9    0.68    0.46
  -1 -11  -9    0.99    0.46
  -1 -11 -10   -0.04    0.17
   1  11  11    8.43    1.03
  -1 -11 -11    8.06    0.80
   1  11  12    7.48    0.77
  -1  11 -12    3.09    0.51
  -1  12  12    0.83    0.27
  -1  12  11   15.13    1.32
  -1  12  10    3.49    0.73
  -1 -12  10    3.36    0.72
  -1  12   9   12.31    1.46
  -1 -12   9   10.44    1.50
  -1  12   8  160.89    5.34
  -1 -12   8  141.52    5.66
  -1 -12   7   71.49    3.03
  -1 -12   7   71.82    4.05
  -1 -12   6   22.35    1.68
  -1 -12   6   20.55    2.17
  -1 -12   6   25.04    2.85
  -1 -12   5    4.83    1.00
  -1 -12   5    6.22    0.86
  -1 -12   5    6.82    1.43
  -1 -12   4    3.49    0.64
  -1 -12   4    3.69    0.96
  -1 -12   4    3.12    0.91
  -1 -12   3    0.37    0.46
  -1 -12   2    0.36    0.37
  -1 -12   1    8.83    1.32
   1 -12   0   10.18    1.14
   1 -12   0   10.24    1.43
   1 -12   1    7.16    1.01
   1 -12   1    7.08    1.21
   1 -12   2    2.74    0.66
   1 -12   2    3.29    0.83
   1 -12   3    1.57    0.64
   1 -12   3    0.87    0.42
   1 -12   4   39.35    2.23
   1 -12   4   40.96    3.35
   1 -12   4   33.69    2.55
  -1 -12  -4   35.67    2.20
   1 -12   5    5.12    0.84
  -1 -12  -5    3.61    0.75
   1 -12   5    4.07    1.16
   1 -12   6   10.47    1.55
   1 -12   6   12.68    1.34
   1 -12   6   14.50    2.24
  -1 -12  -6   13.22    1.39
  -1 -12  -7    6.93    1.02
   1 -12   7    5.23    1.16
  -1 -12  -8   31.65    2.20
   1 -12   8   31.51    2.63
   1 -12   9   46.13    2.95
  -1 -12  -9   47.38    2.48
  -1 -12 -10   31.21    1.78
  -1 -12 -11    6.47    0.65
   1  12  11    5.79    0.81
   1  12  12    0.86    0.23
  -1  13  11    0.13    0.12
  -1  13  10    1.00    0.34
  -1 -13  10    0.84    0.38
  -1 -13   9    2.32    0.63
  -1  13   9    3.49    0.72
  -1 -13   8    5.07    1.10
  -1  13   8    4.85    0.92
  -1 -13   7   -0.18    0.45
  -1 -13   7    0.35    0.23
  -1 -13   6    8.34    1.39
  -1 -13   6   10.41    1.17
  -1 -13   5    1.93    0.66
  -1 -13   5    1.91    0.49
  -1 -13   5    2.65    0.94
  -1 -13   4    0.91    0.34
  -1 -13   4    1.32    0.65
  -1 -13   4    1.36    0.52
  -1 -13   3    0.37    0.50
  -1 -13   3   -0.21    0.24
  -1 -13   3    0.64    0.42
  -1 -13   2   18.24    2.12
  -1 -13   2   19.50    1.46
   1 -13  -1    2.71    0.61
  -1 -13   1    2.48    0.79
   1 -13   0   26.52    1.93
   1 -13   0   27.81    2.52
   1 -13   1    0.84    0.43
   1 -13   1    1.07    0.42
   1 -13   2   48.02    3.44
   1 -13   2   44.50    2.68
   1 -13   2   47.34    2.34
   1 -13   3   11.14    1.19
  -1 -13  -3   10.26    1.18
  -1 -13  -3   10.22    1.07
   1 -13   3   10.41    1.66
   1 -13   4    9.58    1.65
  -1 -13  -4    8.17    1.08
   1 -13   4    7.54    1.00
   1 -13   5    2.52    0.60
  -1 -13  -5    3.64    0.73
   1 -13   5    2.62    0.92
   1 -13   6    3.03    0.83
  -1 -13  -6    3.20    0.70
   1 -13   6    3.31    0.71
   1 -13   7   -0.19    0.45
  -1 -13  -7   -0.59    0.40
   1 -13   8   13.50    1.70
  -1 -13  -8   16.90    1.53
   1 -13   9    3.62    0.83
  -1 -13  -9    2.66    0.58
  -1 -13 -10   15.51    1.17
   1  13  10   15.72    1.38
   1  13  11    0.26    0.15
  -1  14  11   -0.30    0.16
  -1 -14  10    0.17    0.17
  -1  14  10    0.32    0.17
  -1  14   9    5.42    0.86
  -1 -14   9    5.12    0.99
  -1 -14   8    3.17    0.89
  -1  14   8    3.41    0.73
  -1 -14   7   -0.11    0.47
  -1 -14   7    0.38    0.26
  -1 -14   6    0.70    0.40
  -1 -14   6    0.66    0.35
  -1 -14   5   19.67    1.60
  -1 -14   5   18.59    2.03
  -1 -14   5   20.10    2.66
  -1 -14   4   18.38    1.52
  -1 -14   4   18.89    1.97
  -1 -14   4   16.43    2.25
  -1 -14   3   75.17    3.00
  -1 -14   3   71.86    4.46
  -1 -14   3   76.64    3.90
  -1 -14   2    0.73    0.39
  -1 -14   2    0.12    0.10
  -1 -14   2    0.65    0.44
  -1 -14   1    0.18    0.21
  -1 -14   1    0.93    0.51
   1 -14  -1    0.34    0.26
  -1 -14   1    1.00    0.33
   1 -14  -1    0.65    0.22
   1 -14   0   19.13    1.74
  -1 -14   0   19.75    1.50
   1 -14   0   19.92    1.47
  -1 -14  -1   30.95    1.87
   1 -14   1   31.84    1.91
   1 -14   1   28.54    2.69
  -1 -14  -2    5.90    0.83
   1 -14   2    6.70    1.34
   1 -14   2    6.00    0.86
  -1 -14  -3    4.27    0.73
  -1 -14  -3    3.87    0.81
   1 -14   3    4.25    0.77
   1 -14   3    4.72    1.20
   1 -14   4   15.39    2.23
   1 -14   4   17.87    1.59
  -1 -14  -4   16.20    1.57
  -1 -14  -5   24.97    1.94
   1 -14   5   27.24    2.01
   1 -14   6   40.94    3.02
  -1 -14  -6   36.20    2.29
   1 -14   7   -0.26    0.54
  -1 -14  -7   -0.38    0.33
   1 -14   8    1.13    0.45
  -1 -14  -8    0.57    0.26
   1 -14   9    0.42    0.31
  -1 -14  -9    0.00    0.16
  -1 -14 -10    0.07    0.16
   1  14  10    0.63    0.25
  -1 -15  10    0.55    0.29
  -1 -15   9    0.40    0.39
  -1 -15   8    3.49    0.84
  -1 -15   7   -0.30    0.44
  -1 -15   7   -0.09    0.21
  -1 -15   6    0.30    0.45
  -1 -15   6    0.36    0.18
  -1 -15   5    6.78    0.94
  -1 -15   5    7.06    1.27
  -1 -15   4   21.53    2.16
  -1 -15   4   18.98    1.58
  -1 -15   3   25.70    2.32
  -1 -15   3   23.58    2.68
  -1 -15   3   22.94    1.69
  -1 -15   2    2.78    0.74
   1 -15  -2    2.98    0.73
  -1 -15   2    2.39    0.81
  -1 -15   2    2.24    0.53
  -1 -15   1   -0.19    0.22
   1 -15  -1    0.20    0.17
  -1 -15   1    0.08    0.14
   1 -15   0    2.12    0.50
  -1 -15   0    1.61    0.46
   1 -15   1    1.67    0.76
  -1 -15  -1    1.55    0.44
   1 -15   1    0.95    0.37
   1 -15   2    1.17    0.52
   1 -15   2    1.45    0.41
  -1 -15  -2    1.34    0.41
   1 -15   3    1.36    0.46
  -1 -15  -3    1.73    0.44
   1 -15   3    0.85    0.45
  -1 -15  -4    3.72    0.74
   1 -15   4    4.10    0.80
   1 -15   5    5.21    1.15
   1 -15   5    4.68    0.85
  -1 -15  -5    3.88    0.80
   1 -15   6   66.65    3.83
  -1 -15  -6   61.57    2.98
  -1 -15  -7    1.19    0.39
   1 -15   7    1.13    0.54
  -1 -15  -8    0.45    0.25
   1 -15   8    0.77    0.42
  -1 -15  -9   -0.03    0.22
   1 -15   9    0.41    0.33
   1  15   9    0.55    0.26
   1  15  10    0.58    0.22
  -1 -16  10    5.82    0.69
  -1 -16   9    6.08    0.90
  -1 -16   8    4.09    0.87
  -1 -16   7    0.43    0.45
  -1 -16   6    5.04    0.79
  -1 -16   6    5.24    1.11
  -1 -16   5    0.39    0.34
  -1 -16   5    0.44    0.30
  -1 -16   4    0.23    0.24
  -1 -16   4    0.29    0.14
  -1 -16   3    0.31    0.14
  -1 -16   3    1.01    0.49
  -1 -16   2    3.18    0.63
  -1 -16   2    3.31    0.82
  -1 -16   1    0.01    0.23
   1 -16  -1    0.11    0.13
  -1 -16   1   -0.17    0.21
  -1 -16   0   -0.03    0.18
   1 -16   0    0.14    0.18
  -1 -16  -1    6.74    0.90
   1 -16   1    7.10    0.95
  -1 -16  -2    0.62    0.30
   1 -16   2    0.48    0.25
  -1 -16  -3    0.29    0.20
   1 -16   3    0.19    0.25
   1 -16   4    5.42    1.17
   1 -16   4    4.85    0.85
   1 -16   5   24.54    1.87
   1 -16   5   23.51    2.32
  -1 -16  -5   20.54    1.72
   1 -16   6   13.50    1.74
  -1 -16  -6   10.82    1.25
  -1 -16  -7   11.53    1.24
   1 -16   7   12.46    1.58
   1 -16   8    1.07    0.47
   1 -16   9   -0.12    0.27
  -1 -17   9    0.03    0.21
  -1 -17   8    4.36    0.85
  -1 -17   7    0.44    0.31
  -1 -17   6    0.88    0.34
  -1 -17   6    0.51    0.44
  -1 -17   5    0.87    0.36
  -1 -17   5    0.77    0.47
  -1 -17   4    6.55    1.21
  -1 -17   4    7.60    0.99
  -1 -17   3    0.71    0.45
  -1 -17   3    0.41    0.26
  -1 -17   2    5.81    0.86
  -1 -17   2    6.89    1.20
  -1 -17   1    1.36    0.57
  -1 -17   1    0.66    0.28
   1 -17  -1    0.63    0.33
   1 -17   0    1.03    0.35
  -1 -17   0    1.92    0.56
  -1 -17  -1   -0.01    0.15
   1 -17   1    0.32    0.23
  -1 -17  -2    0.37    0.19
   1 -17   2    0.60    0.26
  -1 -17  -3   -0.03    0.13
   1 -17   3   -0.04    0.21
   1 -17   4    0.32    0.16
   1 -17   4    0.64    0.45
   1 -17   5    2.66    0.76
   1 -17   5    2.24    0.52
   1 -17   6    0.17    0.36
   1 -17   7   -0.26    0.29
   1 -17   8    0.58    0.36
   1 -17   9   -0.09    0.15
  -1 -18   9   -0.17    0.19
  -1 -18   8    0.57    0.27
  -1 -18   7    0.50    0.38
  -1 -18   6   -0.02    0.14
  -1 -18   6    0.49    0.38
  -1 -18   5    0.15    0.30
  -1 -18   5    0.29    0.24
  -1 -18   4   -0.03    0.40
  -1 -18   4    0.18    0.17
  -1 -18   3    1.41    0.73
  -1 -18   3    0.15    0.21
  -1 -18   2   15.23    1.74
  -1 -18   2   16.11    1.42
  -1 -18   1    2.95    0.61
   1 -18  -1    2.94    0.55
  -1 -18   0    0.29    0.24
   1 -18   0   -0.03    0.16
   1 -18   1    0.11    0.18
  -1 -18  -1    0.29    0.21
   1 -18   2    1.44    0.66
   1 -18   2    2.16    0.54
  -1 -18  -2    2.17    0.49
   1 -18   3    1.67    0.49
  -1 -18  -3    1.28    0.37
   1 -18   3    2.24    0.74
   1 -18   4    3.11    0.84
   1 -18   4    3.28    0.65
   1 -18   5    3.38    0.84
   1 -18   6    1.03    0.59
   1 -18   7    0.72    0.33
   1 -18   8    0.51    0.26
  -1 -19   8    1.39    0.38
  -1 -19   7    1.85    0.54
  -1 -19   6    2.75    0.72
  -1 -19   5    1.91    0.60
  -1 -19   5    3.65    0.61
  -1 -19   4    0.01    0.30
  -1 -19   4    0.26    0.25
  -1 -19   3    3.75    0.68
  -1 -19   3    2.87    0.71
  -1 -19   2    2.04    0.48
  -1 -19   2    1.40    0.49
  -1 -19   1    6.24    0.86
   1 -19  -1    6.05    0.79
  -1 -19   0    3.44    0.63
   1 -19   0    3.57    0.64
   1 -19   1    0.07    0.11
   1 -19   1    0.00    0.25
  -1 -19  -1   -0.06    0.16
  -1 -19  -2    1.79    0.43
   1 -19   2    1.26    0.59
   1 -19   2    1.85    0.48
   1 -19   3    0.28    0.19
   1 -19   3    0.13    0.32
  -1 -19  -3    0.14    0.15
   1 -19   4    1.96    0.47
   1 -19   4    1.77    0.58
   1 -19   5    0.35    0.28
   1 -19   6    0.37    0.35
   1 -19   7    0.18    0.23
   1 -19   8    1.78    0.37
  -1 -20   7    0.61    0.31
  -1 -20   6   -0.21    0.21
  -1 -20   5    0.18    0.37
  -1 -20   5   -0.09    0.14
  -1 -20   4    1.25    0.35
  -1 -20   4    0.73    0.40
  -1 -20   3    1.23    0.48
  -1 -20   3    2.33    0.51
  -1 -20   2    0.61    0.21
  -1 -20   2    0.53    0.35
   1 -20  -1    0.73    0.25
  -1 -20   1    0.90    0.34
  -1 -20   0    4.07    0.66
   1 -20   0    4.57    0.67
   1 -20   1    0.43    0.23
  -1 -20  -1    0.30    0.19
   1 -20   1    0.05    0.22
   1 -20   2    0.43    0.45
   1 -20   2    0.37    0.24
  -1 -20  -2    0.19    0.09
   1 -20   3    1.38    0.41
   1 -20   3    0.88    0.46
   1 -20   4    0.10    0.36
   1 -20   5   -0.25    0.25
   1 -20   6    0.54    0.32
   1 -20   7    0.06    0.16
  -1 -21   6   -0.21    0.19
  -1 -21   5   -0.23    0.21
  -1 -21   4    0.23    0.26
  -1 -21   4    0.18    0.17
  -1 -21   3    2.20    0.50
  -1 -21   3    2.62    0.49
  -1 -21   2    0.54    0.31
  -1 -21   1    0.28    0.18
  -1 -21   0    0.29    0.18
   1 -21   0    0.34    0.17
   1 -21   1    0.37    0.33
   1 -21   1    0.20    0.14
  -1 -21  -1    0.17    0.19
   1 -21   2    0.15    0.13
  -1 -21  -2    0.14    0.13
   1 -21   3    0.37    0.25
   1 -21   4    1.72    0.46
   1 -21   5    0.95    0.33
   1 -21   6    1.57    0.40
  -1 -22   4   -0.16    0.19
  -1 -22   3    0.38    0.15
  -1 -22   2    1.95    0.40
  -1 -22   1    0.12    0.12
  -1 -22   0   -0.08    0.08
  -1 -22  -1    0.13    0.08
   1 -22   2    0.39    0.22
   1 -22   3    0.66    0.23
   1 -22   4    0.28    0.21
  -1 -23   1    6.20    0.58
  -1 -23   0    1.13    0.24
  -2   0  13   -0.14    0.12
   2   0 -12    1.81    0.51
  -2   0  12    4.54    0.82
  -2   0  11    0.08    0.20
   2   0 -11   -0.25    0.30
   2   0 -10    2.82    0.75
  -2   0  10    0.44    0.25
  -2   0   9    0.13    0.17
   2   0  -9    0.08    0.35
   2   0  -8    5.38    1.16
  -2   0   8    8.31    1.32
   2   0  -7   -0.17    0.25
   2   0  -6   17.37    1.78
   2   0  -5   -0.15    0.27
   2   0  -4  857.92    9.87
  -2   0   3   -0.09    0.15
  -2   0   2 1373.69    5.99
  -2   0   1   -0.09    0.13
  -2   0   1   -0.02    0.03
   2   0   0  521.54    3.87
   2   0   1    0.08    0.08
   2   0   2 9999.00   25.40
  -2   0  -2 9923.83   25.16
  -2   0  -3    0.21    0.18
   2   0   3    0.27    0.19
  -2   0  -4  288.94    6.05
   2   0   4  276.92    5.79
   2   0   5    0.18    0.18
  -2   0  -5   -0.05    0.20
  -2   0  -6   24.60    2.21
  -2   0  -7    0.30    0.38
  -2   0  -8    3.44    1.01
  -2   0  -9    0.81    0.44
  -2   0  -9    0.50    0.42
  -2   0 -10   34.09    2.52
  -2   0 -11    0.08    0.35
  -2   0 -12    0.63    0.36
  -2   0 -13    0.00    0.15
   2   1 -13    0.21    0.16
  -2   1  13   -0.15    0.12
  -2   1  12    1.33    0.47
   2   1 -12    1.76    0.60
   2  -1 -12    1.11    0.50
  -2  -1  12    0.99    0.41
  -2  -1  11    2.78    0.68
  -2   1  11    2.64    0.75
   2   1 -11    1.87    0.65
   2  -1 -11    2.63    0.93
   2  -1 -10    1.29    0.65
  -2  -1  10    0.48    0.29
  -2   1  10    0.30    0.35
  -2  -1   9    7.85    1.37
  -2  -1   9    8.32    1.09
   2  -1  -9    7.86    1.49
  -2   1   9    8.60    1.14
   2   1  -9    8.16    1.55
   2  -1  -8    2.18    0.81
  -2  -1   8    1.42    0.51
   2   1  -8    1.93    0.72
   2  -1  -7   19.26    2.07
  -2  -1   7   16.64    1.72
   2   1  -7   16.99    1.93
   2   1  -6  172.93    5.47
   2  -1  -6  161.22    5.43
   2  -1  -5    7.97    1.13
   2   1  -5   10.74    1.24
  -2  -1   4   11.36    0.97
  -2  -1   4   10.86    1.07
   2   1  -4   10.52    1.15
  -2  -1   3   19.81    1.25
   2   1  -3   18.87    1.24
  -2  -1   3   21.36    1.10
  -2  -1   2   18.25    0.82
  -2   1   2   17.81    1.06
  -2   1   1    0.29    0.13
  -2  -1   1    0.11    0.08
   2   1   0  283.77    2.61
   2  -1   0  306.92    3.14
  -2  -1  -1  926.47    5.01
   2  -1   1  936.14    6.45
  -2  -1  -2  741.90    6.63
   2   1   2  742.26    6.87
   2  -1   2  728.17    7.07
   2   1   3  451.46    6.39
   2  -1   3  449.37    6.44
  -2  -1  -3  460.23    6.52
  -2   1  -4   20.37    1.67
   2   1   4   22.53    1.69
  -2  -1  -4   22.86    1.74
   2  -1   4   18.55    1.51
   2  -1   5    0.64    0.31
  -2  -1  -5    1.21    0.47
  -2  -1  -6   17.74    1.84
  -2   1  -6   17.13    1.92
  -2  -1  -7   14.58    1.87
  -2   1  -7   13.52    1.84
  -2  -1  -8    3.01    0.80
  -2  -1  -8    3.62    1.12
  -2   1  -8    4.89    1.20
  -2  -1  -9    0.63    0.61
  -2   1  -9    0.56    0.61
  -2  -1  -9    0.40    0.25
  -2   1  -9   -0.03    0.36
  -2   1 -10    2.55    0.83
  -2  -1 -10    2.31    0.68
  -2  -1 -11    5.80    1.02
  -2   1 -11    4.76    0.95
  -2   1 -12    1.97    0.52
  -2  -1 -12    3.04    0.61
  -2   1 -13    0.52    0.27
  -2  -1 -13    0.59    0.25
   2   2 -13    0.82    0.32
  -2   2  13    0.61    0.30
   2   2 -12    6.12    1.01
  -2   2  12    9.10    1.17
  -2  -2  11   59.07    2.98
  -2   2  11   57.15    3.04
  -2  -2  10   21.94    1.85
  -2   2  10   19.80    1.80
   2  -2 -10   17.52    1.92
  -2  -2   9    2.84    0.84
  -2   2   9    2.61    0.65
  -2  -2   9    3.16    0.68
   2  -2  -9    2.95    0.99
   2   2  -9    3.29    1.03
   2   2  -8    1.76    0.76
   2  -2  -8    2.72    0.88
  -2   2   8    2.47    0.57
  -2  -2   8    1.63    0.60
  -2  -2   7   45.50    2.86
   2   2  -7   41.26    2.93
   2  -2  -7   44.97    3.20
  -2  -2   6    1.59    0.54
   2   2  -6    1.13    0.44
   2  -2  -6    1.29    0.56
  -2  -2   5  134.41    3.92
   2   2  -5  136.04    4.41
  -2  -2   4   12.04    1.11
   2   2  -4   12.59    1.21
  -2  -2   4   12.44    1.03
  -2  -2   3   19.97    1.31
  -2  -2   3   22.95    1.21
   2   2  -3   21.26    1.36
   2   2  -2   12.07    0.84
  -2  -2   2   12.32    0.95
  -2  -2   2   13.46    0.82
  -2   2   1   92.83    2.16
  -2  -2   1   89.61    1.96
   2  -2   0    0.79    0.13
   2  -2   0    0.74    0.17
   2   2   0    0.76    0.13
  -2   2   0    0.64    0.15
   2   2   1  286.29    3.46
  -2  -2  -1  278.61    2.44
   2  -2   1  288.21    3.85
  -2  -2  -2  244.05    3.69
   2  -2   2  239.15    4.24
   2   2   2  252.59    4.08
  -2   2  -3   13.91    1.21
   2  -2   3   13.29    1.14
  -2  -2  -3   14.34    1.16
  -2   2  -4   49.99    2.64
  -2  -2  -4   53.36    2.63
   2  -2   4   49.43    2.52
  -2   2  -5   93.42    4.07
   2  -2   5   89.24    3.81
  -2  -2  -5  101.44    4.05
  -2   2  -6   17.21    1.93
  -2  -2  -6   16.43    1.79
   2  -2   6   15.20    1.95
  -2  -2  -7   20.41    2.18
  -2   2  -7   19.02    2.18
  -2   2  -8    0.13    0.37
  -2  -2  -8    0.32    0.27
  -2  -2  -8    0.08    0.27
  -2   2  -9   -0.04    0.28
  -2  -2  -9    0.11    0.32
  -2  -2  -9    0.29    0.36
  -2   2 -10   -0.08    0.27
  -2  -2 -10    0.68    0.43
  -2   2 -11    3.93    0.87
  -2  -2 -11    4.41    0.86
   2   2  12    4.29    0.69
  -2  -2 -12    4.39    0.72
  -2   2 -12    4.16    0.76
  -2   2 -13    6.32    0.71
  -2  -2 -13    6.29    0.67
   2   3 -13    0.87    0.36
  -2   3  13    1.96    0.48
   2   3 -12    9.22    1.21
  -2   3  12   14.51    1.46
  -2   3  11   36.93    2.47
  -2   3  10   -0.08    0.30
  -2  -3   9   18.21    2.17
  -2   3   9   16.99    1.62
   2   3  -9   14.06    2.00
   2  -3  -9   17.93    2.38
   2  -3  -8    7.83    1.52
  -2   3   8    8.48    1.08
   2   3  -8    7.73    1.42
  -2  -3   8    7.68    1.28
   2  -3  -7   63.46    3.93
   2   3  -7   54.03    3.39
  -2  -3   7   61.09    3.34
   2   3  -6    0.44    0.25
  -2  -3   6    0.54    0.32
   2  -3  -6    0.83    0.52
  -2  -3   5  307.55    6.07
   2   3  -5  348.25    7.04
  -2  -3   4   35.25    1.91
  -2  -3   4   38.12    1.90
   2   3  -4   35.22    2.00
  -2  -3   3   83.89    2.75
  -2  -3   3   80.80    2.43
   2   3  -3   76.39    2.54
  -2  -3   2  196.64    3.40
   2   3  -2  182.53    3.22
  -2  -3   1  117.16    2.55
   2   3  -1  105.51    1.66
   2  -3   0   79.34    1.55
   2  -3   1    9.78    0.96
  -2  -3  -1   45.32    0.80
  -2  -3  -2   51.87    1.71
  -2   3  -2   51.80    2.11
   2  -3   2   48.97    1.93
  -2  -3  -3  101.96    3.02
   2  -3   3   93.23    3.13
  -2   3  -3   93.28    3.33
   2  -3   4   15.70    1.47
  -2  -3  -4   18.50    1.50
  -2   3  -4   16.43    1.59
  -2  -3  -5   22.74    1.90
   2  -3   5   19.91    1.91
  -2   3  -5   19.48    1.89
  -2   3  -6    0.27    0.31
  -2  -3  -6    0.60    0.39
   2  -3   6    0.16    0.16
  -2  -3  -7    1.45    0.58
  -2   3  -7    3.46    1.04
  -2  -3  -8   11.92    1.76
  -2  -3  -8   11.75    1.47
  -2   3  -8   12.65    1.95
  -2   3  -9    9.39    1.72
   2  -3   9    8.90    1.83
  -2  -3  -9    8.58    1.24
  -2  -3 -10    0.09    0.34
  -2   3 -10    0.39    0.32
  -2  -3 -11    5.00    0.92
  -2   3 -11    5.51    1.02
   2   3  12    6.23    0.85
  -2  -3 -12    5.42    0.78
  -2   3 -12    5.93    0.90
  -2  -3 -13    0.55    0.23
  -2  -3 -13    1.25    0.30
  -2   3 -13    1.33    0.38
  -2   4  13    0.53    0.28
   2   4 -13    0.33    0.25
   2   4 -12    0.30    0.32
  -2   4  12    0.36    0.20
  -2   4  11    0.56    0.40
  -2   4  10    2.10    0.61
  -2   4   9    4.71    0.85
  -2  -4   9    4.33    1.05
   2  -4  -9    4.48    1.20
   2   4  -9    4.07    1.10
  -2   4   8    6.51    0.97
   2  -4  -8    6.50    1.38
   2   4  -8    6.57    1.33
  -2  -4   8    6.77    1.26
   2  -4  -7    0.69    0.48
  -2  -4   7    0.41    0.21
   2   4  -7    0.61    0.34
  -2  -4   6    3.45    0.76
   2   4  -6    3.76    0.83
  -2  -4   5  121.77    4.04
  -2  -4   5  119.63    3.94
   2   4  -4    2.42    0.53
  -2  -4   4    2.01    0.48
  -2  -4   4    2.21    0.48
  -2  -4   3    4.16    0.63
   2   4  -3    5.17    0.70
  -2  -4   3    5.20    0.66
   2   4  -2   15.84    0.93
  -2  -4   2   17.13    1.10
   2  -4  -1    0.27    0.11
   2   4  -1    0.30    0.09
  -2  -4   1    0.34    0.15
  -2  -4   0   32.28    1.50
   2  -4   0   29.93    1.11
   2  -4   1   46.05    1.77
   2  -4   1   40.80    1.54
   2  -4   2   15.98    1.20
  -2  -4  -2   16.15    0.96
   2  -4   2   16.36    1.15
  -2  -4  -3    9.32    0.93
  -2   4  -3    9.51    1.10
   2  -4   3    8.72    1.01
   2  -4   4   24.01    1.88
  -2   4  -4   28.03    2.13
  -2  -4  -4   30.42    1.98
   2  -4   5   48.20    3.00
  -2   4  -5   50.45    3.13
  -2  -4  -5   55.52    2.97
  -2   4  -6    4.23    1.00
  -2  -4  -6    5.17    1.03
   2  -4   6    3.36    0.93
  -2   4  -7   18.73    2.21
  -2  -4  -7   20.67    2.19
   2  -4   7   17.81    2.25
   2  -4   8   64.64    4.57
  -2  -4  -8   71.12    3.47
  -2   4  -8   77.73    4.72
  -2  -4  -8   70.40    4.30
  -2  -4  -9   37.86    2.52
  -2  -4 -10    0.58    0.44
  -2  -4 -11    0.21    0.20
  -2   4 -11    0.32    0.25
  -2   4 -12    0.53    0.35
  -2  -4 -12    0.32    0.29
   2   4  12    0.00    0.15
  -2   4 -13    2.33    0.44
   2   4  13    2.66    0.45
  -2  -4 -13    3.72    0.49
   2   5 -13    2.30    0.48
  -2   5  13    5.13    0.81
   2   5 -12    0.28    0.20
  -2   5  12    0.88    0.43
  -2   5  11   12.06    1.43
  -2   5  10   12.37    1.46
  -2   5   9    5.04    0.89
  -2  -5   9    5.78    1.30
   2  -5  -9    5.79    1.38
   2   5  -9    4.37    1.20
   2  -5  -8   10.38    1.78
   2   5  -8    9.07    1.60
  -2  -5   8    9.38    1.54
  -2  -5   8   10.10    1.41
   2   5  -7   13.13    1.71
   2  -5  -7   11.84    1.76
  -2  -5   7   12.25    1.60
  -2  -5   6   12.62    1.48
   2   5  -6   13.78    1.56
  -2  -5   5    8.97    1.14
   2   5  -5   10.65    1.24
  -2  -5   5    7.72    0.99
  -2  -5   4   29.59    1.90
   2   5  -4   27.23    1.81
   2   5  -3    1.52    0.36
  -2  -5   3    1.33    0.37
  -2  -5   3    1.16    0.35
  -2  -5   2   15.50    1.16
   2   5  -2   15.41    0.92
  -2  -5   1   11.23    0.96
   2  -5  -1   10.87    0.74
  -2  -5   0  531.03    6.61
   2  -5   0  512.83    5.41
   2  -5   1   39.89    1.66
   2  -5   1   44.46    1.82
   2  -5   2   33.04    1.74
  -2  -5  -2   30.45    1.34
   2  -5   2   30.09    1.64
  -2  -5  -3   21.97    1.43
   2  -5   3   21.13    1.62
   2  -5   3   18.81    1.56
   2  -5   4    3.39    0.77
  -2   5  -4    2.64    0.69
   2  -5   4    2.90    0.71
  -2  -5  -4    3.22    0.66
  -2   5  -5    1.43    0.55
   2  -5   5    1.06    0.47
   2  -5   5    1.22    0.52
  -2  -5  -5    1.32    0.48
   2  -5   6   17.81    2.03
  -2   5  -6   18.99    2.09
  -2  -5  -6   19.05    1.98
   2  -5   6   16.05    2.01
  -2   5  -7    1.23    0.64
   2  -5   7    0.82    0.56
   2  -5   7    1.55    0.63
  -2  -5  -7    0.37    0.22
  -2  -5  -7    0.03    0.23
  -2   5  -8    5.11    1.26
   2  -5   8    1.90    0.85
  -2  -5  -8    3.54    0.79
  -2  -5  -9    2.73    0.78
  -2  -5 -10    0.31    0.27
  -2  -5 -11    0.19    0.31
  -2   5 -11   -0.30    0.41
   2   5  12    0.05    0.16
  -2   5 -12   -0.11    0.21
  -2  -5 -12   -0.08    0.14
   2   5  13    0.14    0.11
  -2  -5 -13    0.06    0.08
  -2   6  13    7.88    0.95
   2   6 -13    3.59    0.58
  -2   6  12    7.47    1.06
  -2   6  11    3.69    0.80
  -2   6  10    0.87    0.51
  -2  -6   9    0.30    0.43
  -2   6   9    0.04    0.24
   2   6  -9    0.11    0.33
   2  -6  -9   -0.12    0.38
  -2  -6   9    0.10    0.17
  -2  -6   8    0.34    0.38
   2   6  -8    0.50    0.50
  -2  -6   8   -0.23    0.24
   2  -6  -8   -0.32    0.39
  -2  -6   7    1.44    0.60
   2  -6  -7    1.28    0.53
   2   6  -7    1.18    0.56
   2   6  -6   19.39    1.91
  -2  -6   6   17.75    1.83
   2   6  -5  125.65    4.34
  -2  -6   5  122.59    4.41
  -2  -6   5  119.50    4.02
   2   6  -4   17.72    1.48
  -2  -6   4   15.01    1.35
  -2  -6   4   15.61    1.43
  -2  -6   3   22.16    1.56
   2   6  -3   22.38    1.40
  -2  -6   3   22.92    1.58
  -2  -6   2   20.12    1.43
   2   6  -2   19.83    1.06
  -2  -6   1   24.44    1.54
   2  -6  -1   22.22    1.23
   2  -6   0   82.21    2.45
  -2  -6   0   89.24    2.94
   2  -6   1    0.82    0.30
   2  -6   1    0.71    0.24
   2  -6   2  100.55    3.19
  -2  -6  -2   95.58    2.49
   2  -6   2   94.91    3.12
  -2  -6  -3    6.05    0.78
   2  -6   3    5.25    0.85
  -2  -6  -4   25.00    1.81
   2  -6   4   25.85    2.06
   2  -6   4   22.20    1.93
   2  -6   5   53.69    3.36
  -2   6  -5   63.25    3.45
   2  -6   5   59.44    3.39
  -2  -6  -5   69.02    3.35
  -2   6  -6   22.63    2.25
   2  -6   6   20.08    2.25
   2  -6   6   22.15    2.33
   2  -6   7    4.07    1.25
  -2   6  -7    5.45    1.19
   2  -6   7    4.02    1.09
  -2  -6  -7    6.35    1.00
  -2   6  -8   -0.08    0.39
  -2  -6  -8   -0.48    0.36
   2  -6   8    0.40    0.51
  -2  -6  -9    8.07    1.14
  -2  -6 -10   10.11    1.26
  -2   6 -11    1.63    0.55
  -2  -6 -11    1.49    0.47
  -2  -6 -12    0.70    0.27
   2   6  12    0.92    0.37
  -2   6 -12    0.80    0.28
  -2  -6 -13    1.82    0.31
  -2   6 -13    1.01    0.28
   2   6  13    2.08    0.39
  -2   7  13    1.34    0.39
   2   7 -13    0.73    0.30
  -2   7  12    4.91    0.85
  -2   7  11   17.75    1.76
  -2   7  10    0.77    0.50
  -2  -7   9    6.31    1.27
  -2   7   9    5.66    1.03
   2  -7  -8    3.63    1.05
  -2  -7   8    2.93    0.87
  -2  -7   8    3.32    0.91
   2   7  -8    3.30    0.97
  -2  -7   7    0.21    0.26
  -2  -7   7    0.05    0.39
   2  -7  -7    0.05    0.25
   2   7  -7    0.05    0.19
  -2  -7   6   33.78    2.65
   2   7  -6   31.35    2.52
  -2  -7   5    0.14    0.21
   2   7  -5    0.38    0.26
  -2  -7   5    0.14    0.31
  -2  -7   4   13.37    1.35
   2   7  -4   14.18    1.31
  -2  -7   4   13.54    1.41
  -2  -7   3  125.14    4.04
   2   7  -3  122.35    3.36
  -2  -7   2   12.66    1.24
   2  -7  -1   13.33    1.07
  -2  -7   1   14.26    1.26
   2  -7   0   54.10    2.18
  -2  -7   0   52.40    2.45
   2  -7   1    3.92    0.62
   2  -7   1    3.59    0.59
   2  -7   2    1.85    0.77
   2  -7   2    5.96    1.07
   2  -7   3  149.10    4.67
   2  -7   3  142.13    4.52
   2  -7   4   82.31    3.80
   2  -7   4   80.69    3.79
   2  -7   5   43.16    2.97
   2  -7   5   42.87    3.04
   2  -7   6    0.73    0.50
   2  -7   6    0.73    0.41
  -2  -7  -7   20.30    1.75
   2  -7   7   13.28    2.05
   2  -7   7   15.41    2.20
   2  -7   8    0.41    0.32
  -2  -7  -8    1.46    0.58
  -2  -7  -9    2.04    0.62
  -2  -7 -10    7.32    1.13
  -2   7 -11    0.93    0.47
  -2  -7 -11    1.43    0.49
   2   7  12    4.25    0.74
  -2  -7 -12    2.86    0.48
  -2   7 -12    2.56    0.56
  -2   7 -13    0.29    0.16
  -2   8  13    7.70    0.88
   2   8 -13    2.98    0.52
  -2   8  12    0.85    0.35
  -2   8  11    3.21    0.77
  -2   8  10    5.34    0.99
  -2  -8  10    3.80    0.86
  -2   8   9    7.08    1.16
  -2  -8   9    6.05    1.24
  -2   8   8    6.56    1.09
  -2  -8   8    4.88    1.05
  -2  -8   8    5.57    1.33
   2  -8  -8    5.96    1.41
   2   8  -8    6.11    1.22
  -2  -8   7    1.40    0.60
   2  -8  -7    1.24    0.64
   2   8  -7    1.11    0.49
  -2  -8   7    1.16    0.61
  -2  -8   6   18.10    2.00
   2   8  -6   19.92    1.98
  -2  -8   5   15.31    1.52
   2   8  -5   14.33    1.51
  -2  -8   5   15.51    1.71
  -2  -8   4    5.54    0.88
   2   8  -4    5.21    0.79
  -2  -8   4    4.93    0.88
  -2  -8   3    8.58    1.12
  -2  -8   2   13.62    1.35
   2  -8  -1   16.72    1.33
  -2  -8   1   15.13    1.39
   2  -8   0  203.24    4.67
   2  -8   0  201.30    4.41
   2  -8   1   13.96    1.22
   2  -8   1   13.49    1.26
   2  -8   2    0.65    0.29
   2  -8   2    0.69    0.25
   2  -8   3   16.47    1.63
   2  -8   3   16.82    1.60
   2  -8   4    0.39    0.28
   2  -8   4   -0.04    0.23
   2  -8   5   20.97    2.12
   2  -8   5   22.66    2.35
  -2  -8  -6    0.40    0.29
   2  -8   6    0.28    0.27
   2  -8   6    0.06    0.18
   2  -8   7   14.85    2.21
  -2  -8  -7   20.69    1.78
   2  -8   7   19.17    2.51
  -2  -8  -8   14.62    1.56
  -2  -8  -9    0.17    0.25
  -2  -8 -10   -0.12    0.17
  -2  -8 -11    0.62    0.28
   2   8  12    0.70    0.35
  -2  -8 -12    0.88    0.28
  -2   8 -12    0.81    0.32
  -2   9  13    0.23    0.18
  -2   9  12    1.03    0.42
  -2   9  11    4.98    0.88
  -2  -9  10    0.03    0.31
  -2   9  10    0.40    0.28
  -2  -9   9    1.45    0.59
  -2   9   9    2.73    0.73
  -2  -9   8    3.74    0.98
   2  -9  -8    2.33    1.00
  -2   9   8    3.81    0.84
  -2  -9   8    3.26    0.99
   2   9  -8    2.70    0.95
  -2  -9   7    0.64    0.52
   2  -9  -7    1.06    0.46
  -2  -9   7    1.38    0.63
   2   9  -7    0.48    0.44
  -2  -9   6    0.22    0.25
  -2  -9   6    0.45    0.42
   2   9  -6    0.26    0.23
  -2  -9   5    7.58    1.26
   2   9  -5    7.77    1.08
  -2  -9   4    6.61    0.99
  -2  -9   4    7.42    1.17
  -2  -9   3    0.03    0.18
  -2  -9   2    1.43    0.47
   2  -9  -1    4.86    0.78
  -2  -9   1    4.15    0.77
   2  -9   0    5.27    0.81
   2  -9   0    5.09    0.73
  -2  -9   0    5.30    0.91
   2  -9   1   85.11    3.20
   2  -9   1   85.27    3.39
   2  -9   2    5.57    0.92
   2  -9   2    4.88    0.87
   2  -9   3   25.79    2.13
   2  -9   3   24.43    2.01
   2  -9   4   39.37    2.90
   2  -9   4   37.27    2.69
   2  -9   5    0.24    0.31
   2  -9   5    0.53    0.39
   2  -9   6    2.62    0.92
   2  -9   6    1.80    0.71
  -2  -9  -6    3.45    0.70
   2  -9   7   15.99    1.86
  -2  -9  -7   23.19    1.97
   2  -9   7   14.28    2.11
   2  -9   7   20.15    2.64
  -2  -9  -8    7.68    1.24
  -2  -9  -9    0.14    0.74
  -2  -9 -10    0.24    0.17
  -2  -9 -11    0.79    0.30
  -2   9 -12    0.16    0.21
   2   9  12    0.12    0.16
  -2  -9 -12    0.01    0.11
  -2  10  12   -0.13    0.25
  -2  10  11    5.39    0.89
  -2 -10  10    3.71    0.81
  -2  10  10    4.91    0.93
  -2  10   9    9.39    1.36
  -2 -10   9    8.53    1.37
  -2  10   8    0.54    0.35
  -2 -10   8    0.56    0.35
  -2  10   7   20.99    1.94
  -2 -10   7   19.50    2.12
  -2 -10   7   16.45    2.27
   2 -10  -7   14.64    2.14
  -2 -10   6    4.99    1.17
  -2 -10   6    4.26    0.97
  -2 -10   6    4.64    0.69
  -2 -10   5    4.49    1.04
  -2 -10   4   23.54    2.23
  -2 -10   3   48.85    3.02
  -2 -10   2    0.36    0.36
  -2 -10   1    7.12    1.09
   2 -10   0    6.26    0.95
   2 -10   0    6.76    0.91
   2 -10   1    4.58    0.83
   2 -10   1    5.11    0.83
   2 -10   2    3.67    0.79
   2 -10   2    3.12    0.71
   2 -10   3    2.61    0.66
   2 -10   3    2.74    0.75
   2 -10   4   10.03    1.53
   2 -10   4   10.24    1.47
   2 -10   5    0.14    0.27
   2 -10   5    0.19    0.16
  -2 -10  -5    0.91    0.36
   2 -10   5    0.47    0.33
   2 -10   6   -0.19    0.47
  -2 -10  -6   -0.20    0.27
   2 -10   6    0.35    0.38
   2 -10   7    0.21    0.39
   2 -10   7   -0.38    0.51
  -2 -10  -7    0.39    0.29
   2 -10   7    0.02    0.28
   2 -10   8    4.73    1.07
  -2 -10  -8    6.15    1.02
  -2 -10  -9    0.18    0.33
  -2 -10 -10    1.14    0.43
  -2 -10 -11    1.53    0.40
   2  10  12    0.23    0.17
  -2 -10 -12   -0.18    0.12
  -2  10 -12    0.10    0.13
  -2  11  12    0.36    0.20
  -2 -11  11    0.25    0.26
  -2  11  11   -0.30    0.27
  -2  11  10    7.86    1.14
  -2 -11  10    7.12    1.13
  -2 -11   9    0.57    0.45
  -2  11   9    0.16    0.23
  -2 -11   8   20.67    2.19
  -2  11   8   21.11    1.94
  -2 -11   7    3.82    0.94
  -2  11   7    3.60    0.83
   2 -11  -7    2.96    1.07
  -2 -11   7    3.03    1.05
  -2 -11   7    3.11    0.60
  -2  11   6   21.79    1.87
  -2 -11   6   16.86    2.21
  -2 -11   6   18.11    1.43
  -2 -11   6   17.13    1.94
  -2 -11   5    0.16    0.14
  -2 -11   5    0.54    0.41
  -2 -11   5    0.06    0.35
  -2 -11   4    4.88    1.07
  -2 -11   3    3.92    0.92
  -2 -11   2    0.60    0.63
  -2 -11   1   10.22    1.40
   2 -11   0    2.56    0.60
   2 -11   0    3.55    0.75
   2 -11   1    1.48    0.44
   2 -11   1    1.31    0.49
   2 -11   2    3.08    0.81
   2 -11   2    2.59    0.61
   2 -11   3    6.98    1.25
   2 -11   3    6.15    1.09
   2 -11   4   21.68    1.68
  -2 -11  -4   22.19    1.76
   2 -11   4   25.19    2.54
   2 -11   4   22.63    2.21
   2 -11   5    3.36    0.93
   2 -11   5    2.86    0.62
   2 -11   5    3.86    1.08
  -2 -11  -5    2.94    0.64
  -2 -11  -5    4.84    0.93
  -2 -11  -6   13.79    1.43
   2 -11   6   10.33    1.75
   2 -11   6   15.38    2.26
  -2 -11  -7    1.18    0.48
   2 -11   7    0.65    0.34
   2 -11   8    1.75    0.52
  -2 -11  -8    0.82    0.42
  -2 -11  -9    0.02    0.23
  -2 -11 -10    1.40    0.41
  -2 -11 -11    3.09    0.50
   2  11  11    3.97    0.67
   2  11  12    4.81    0.57
  -2  12  12    0.32    0.19
  -2  12  11    3.65    0.64
  -2 -12  11    2.48    0.52
  -2 -12  10    7.01    1.10
  -2  12  10    9.09    1.16
  -2 -12   9    6.54    1.17
  -2  12   9    6.00    1.00
  -2  12   8    7.39    1.17
  -2 -12   8    6.98    1.26
  -2  12   7   52.02    2.97
  -2 -12   7   45.24    3.23
  -2 -12   7   44.05    2.29
  -2 -12   6   35.06    3.31
  -2 -12   6   34.85    2.02
  -2 -12   6   37.02    2.84
  -2 -12   5    0.02    0.21
  -2 -12   5    0.03    0.18
  -2 -12   5    0.23    0.23
  -2 -12   4    2.50    0.82
  -2 -12   4    1.41    0.52
  -2 -12   4    1.95    0.47
  -2 -12   3    9.90    1.55
  -2 -12   2    9.56    1.47
   2 -12  -1   18.80    1.68
  -2 -12   1   16.36    1.87
   2 -12   0    2.73    0.61
   2 -12   0    3.36    0.82
   2 -12   1    6.07    1.10
   2 -12   1    6.73    1.08
   2 -12   2    4.52    1.00
   2 -12   2    4.10    0.83
   2 -12   3    9.62    1.57
  -2 -12  -3    7.81    1.09
   2 -12   3   10.21    1.15
   2 -12   3    9.00    1.38
   2 -12   4    2.16    0.55
   2 -12   4    1.89    0.68
  -2 -12  -4    1.37    0.42
  -2 -12  -4    1.61    0.51
   2 -12   4    1.48    0.59
   2 -12   5   14.88    1.50
   2 -12   5   12.14    1.78
  -2 -12  -5   15.33    1.47
  -2 -12  -5   13.32    1.31
   2 -12   5   14.82    2.19
   2 -12   6    8.13    1.70
  -2 -12  -6    5.80    0.95
   2 -12   7    2.09    0.72
  -2 -12  -7    2.12    0.56
   2 -12   8    0.53    0.43
  -2 -12  -8    1.08    0.45
  -2 -12  -9   11.73    1.24
  -2 -12 -10   11.40    1.07
   2  12  11   10.10    0.96
  -2 -12 -11    9.20    0.77
  -2  13  11    4.93    0.70
  -2 -13  11    2.33    0.46
  -2  13  10    1.07    0.40
  -2 -13  10    0.50    0.28
  -2  13   9    0.10    0.15
  -2 -13   9    0.17    0.23
  -2 -13   8    0.43    0.40
  -2  13   8   -0.39    0.31
  -2 -13   7    2.50    0.79
  -2 -13   7    2.40    0.56
  -2 -13   6   18.29    1.49
  -2 -13   6   19.10    2.08
  -2 -13   5    2.02    0.72
  -2 -13   5    2.21    0.51
  -2 -13   5    2.34    0.70
  -2 -13   4    2.27    0.52
  -2 -13   4    2.70    0.83
  -2 -13   4    1.83    0.58
  -2 -13   3   58.66    2.56
  -2 -13   3   58.45    3.33
  -2 -13   3   58.78    3.91
  -2 -13   2    0.02    0.13
  -2 -13   2   -0.04    0.19
  -2 -13   2   -0.08    0.36
  -2 -13   1   -0.16    0.37
  -2 -13   1    0.01    0.12
   2 -13  -1   -0.10    0.19
   2 -13   0    1.28    0.54
   2 -13   0    0.76    0.36
  -2 -13   0    1.26    0.40
   2 -13   1   12.75    1.52
   2 -13   1   12.15    1.65
  -2 -13  -1   11.74    1.19
   2 -13   2    0.18    0.29
   2 -13   2    0.10    0.17
  -2 -13  -2   -0.04    0.11
   2 -13   2    0.24    0.29
  -2 -13  -2    0.03    0.21
   2 -13   3    2.10    0.54
  -2 -13  -3    1.37    0.54
   2 -13   3    1.73    0.67
  -2 -13  -3    1.64    0.50
   2 -13   3    1.89    0.73
   2 -13   4   12.06    1.33
   2 -13   4   11.37    1.85
  -2 -13  -4   11.37    1.21
  -2 -13  -4   11.08    1.28
   2 -13   4   10.09    1.61
  -2 -13  -5   22.79    1.70
   2 -13   5   26.28    3.03
  -2 -13  -5   24.83    1.93
  -2 -13  -6    0.31    0.20
   2 -13   7    0.96    0.43
  -2 -13  -7    1.48    0.50
   2 -13   8   -0.47    0.44
  -2 -13  -8    0.04    0.29
   2 -13   9   -0.19    0.29
  -2 -13  -9    0.21    0.22
  -2 -13 -10   14.91    1.14
   2  13  11    3.95    0.53
  -2  13 -11    1.47    0.34
  -2  14  10    4.83    0.71
  -2 -14  10    3.41    0.68
  -2  14   9    0.42    0.31
  -2 -14   9    0.09    0.20
  -2 -14   8    0.83    0.60
  -2 -14   7    0.26    0.19
  -2 -14   7    1.36    0.65
  -2 -14   6    1.13    0.53
  -2 -14   6    2.71    0.57
  -2 -14   5    2.69    0.58
  -2 -14   5    1.74    0.53
  -2 -14   4    0.51    0.59
  -2 -14   4    0.35    0.26
  -2 -14   4    0.66    0.45
  -2 -14   3   22.13    1.61
  -2 -14   3   23.55    2.16
  -2 -14   3   22.25    2.51
  -2 -14   2   15.47    1.70
  -2 -14   2   13.58    1.25
  -2 -14   2   14.59    2.01
   2 -14  -2   14.05    1.61
  -2 -14   1   42.11    2.22
   2 -14  -1   41.53    2.68
  -2 -14   0    1.45    0.43
   2 -14   0    0.79    0.33
   2 -14   0    1.47    0.43
   2 -14   1    0.78    0.31
  -2 -14  -1    0.78    0.37
   2 -14   1    0.29    0.21
   2 -14   1    0.08    0.19
  -2 -14  -2    3.54    0.71
   2 -14   2    3.11    0.67
   2 -14   2    2.11    0.67
  -2 -14  -2    1.86    0.67
   2 -14   2    2.29    0.70
   2 -14   3   -0.16    0.26
  -2 -14  -3    0.33    0.30
   2 -14   3    0.34    0.20
  -2 -14  -3    0.18    0.23
   2 -14   3    0.81    0.62
   2 -14   4   85.06    5.23
  -2 -14  -4   76.44    3.17
   2 -14   4   82.63    3.53
  -2 -14  -4   78.13    3.41
  -2 -14  -5  117.33    3.79
  -2 -14  -5  123.85    4.35
   2 -14   6   22.93    2.32
  -2 -14  -6   25.51    1.97
  -2 -14  -7   54.25    2.79
   2 -14   7   51.62    3.32
   2 -14   8    0.51    0.23
  -2 -14  -8    0.86    0.36
   2 -14   9    3.23    0.68
  -2 -14  -9    3.04    0.59
   2  14  10    1.46    0.35
  -2 -14 -10    1.03    0.30
  -2 -15  10    1.46    0.42
  -2 -15   9    1.17    0.47
  -2 -15   8    2.79    0.78
  -2 -15   7    1.07    0.57
  -2 -15   7    1.46    0.41
  -2 -15   6    9.41    1.46
  -2 -15   6   10.24    1.11
  -2 -15   5    1.39    0.45
  -2 -15   5    1.01    0.43
  -2 -15   4    7.15    1.25
  -2 -15   4    6.42    0.90
  -2 -15   3   76.12    3.93
  -2 -15   3   76.13    3.06
   2 -15  -3   69.43    3.77
  -2 -15   3   72.24    4.71
  -2 -15   2   98.69    4.37
  -2 -15   2   97.89    3.44
  -2 -15   2   93.05    5.30
   2 -15  -2   87.96    4.15
  -2 -15   1   19.51    1.54
   2 -15  -1   17.56    1.82
   2 -15   0    9.96    1.05
  -2 -15   0   10.96    1.16
   2 -15   0   10.81    1.49
  -2 -15  -1    6.12    0.89
   2 -15   1    5.01    0.98
   2 -15   1    5.58    0.84
   2 -15   2   -0.23    0.34
  -2 -15  -2    0.18    0.16
   2 -15   2    0.29    0.18
   2 -15   3   24.13    1.88
  -2 -15  -3   23.04    1.73
  -2 -15  -3   18.68    1.68
   2 -15   3   24.48    2.78
   2 -15   4    1.93    0.59
  -2 -15  -4    1.93    0.55
  -2 -15  -4    1.09    0.42
  -2 -15  -5    1.82    0.58
   2 -15   6   20.28    2.12
  -2 -15  -6   21.21    1.76
   2 -15   7   28.66    2.40
  -2 -15  -7   29.82    2.02
   2 -15   8    1.86    0.58
  -2 -15  -8    2.42    0.55
   2 -15   9    1.47    0.45
   2  15   9    1.40    0.39
  -2 -15  -9    0.53    0.25
   2  15  10    0.72    0.22
  -2 -16  10    0.45    0.22
  -2 -16   9    0.72    0.28
  -2 -16   8   -0.04    0.28
  -2 -16   7    2.46    0.79
  -2 -16   7    2.85    0.55
  -2 -16   6    3.62    0.66
  -2 -16   6    4.16    1.03
  -2 -16   5    0.44    0.30
  -2 -16   5    0.06    0.18
  -2 -16   4    5.59    0.83
  -2 -16   4    5.30    1.08
  -2 -16   3    4.43    0.99
  -2 -16   3    3.38    0.66
  -2 -16   2    6.60    1.16
  -2 -16   2    6.75    0.92
  -2 -16   1    0.27    0.20
   2 -16   0    0.13    0.16
  -2 -16   0    0.10    0.11
  -2 -16  -1    1.58    0.47
   2 -16   1    1.36    0.43
   2 -16   2    4.67    0.80
  -2 -16  -2    3.86    0.74
  -2 -16  -3    0.95    0.38
   2 -16   3    0.53    0.35
   2 -16   4    3.18    0.69
  -2 -16  -4    1.92    0.50
  -2 -16  -5    5.91    0.94
   2 -16   5    6.17    1.26
   2 -16   6    5.67    1.13
  -2 -16  -6    5.46    0.88
   2 -16   7    0.28    0.33
  -2 -16  -7    0.19    0.25
  -2 -16  -8   -0.05    0.24
   2 -16   8    0.12    0.25
   2 -16   9    0.39    0.21
  -2 -17   9    0.45    0.22
  -2 -17   8    0.18    0.21
  -2 -17   7    0.67    0.41
  -2 -17   6    3.84    1.00
  -2 -17   6    4.73    0.73
  -2 -17   5    1.31    0.40
  -2 -17   5    3.20    0.82
  -2 -17   4    0.48    0.28
  -2 -17   4    0.13    0.21
  -2 -17   3   21.74    1.64
  -2 -17   3   20.84    2.03
  -2 -17   2    0.24    0.26
  -2 -17   2    0.72    0.34
  -2 -17   1   12.41    1.24
   2 -17   0    0.04    0.21
  -2 -17   0    0.01    0.19
   2 -17   1    5.23    0.80
  -2 -17  -1    5.23    0.82
   2 -17   2   -0.10    0.10
  -2 -17  -2   -0.15    0.16
   2 -17   3    2.14    0.54
  -2 -17  -3    2.07    0.52
  -2 -17  -4    1.69    0.40
   2 -17   5    0.38    0.44
   2 -17   6    2.93    0.77
   2 -17   7    0.51    0.40
   2 -17   8    0.84    0.30
  -2 -18   9    0.59    0.21
  -2 -18   8    1.00    0.37
  -2 -18   7    0.14    0.23
  -2 -18   6    0.86    0.39
  -2 -18   6    1.19    0.34
  -2 -18   5    2.55    0.53
  -2 -18   5    2.81    0.78
  -2 -18   4    8.44    1.33
  -2 -18   4   10.98    1.13
  -2 -18   3    0.78    0.30
  -2 -18   3    0.98    0.47
  -2 -18   2    0.37    0.24
  -2 -18   2    0.61    0.34
  -2 -18   1   22.50    1.67
   2 -18   0    3.71    0.64
  -2 -18   0    3.67    0.69
  -2 -18  -1    3.76    0.67
   2 -18   1    3.34    0.63
  -2 -18  -2    1.14    0.38
   2 -18   2    1.91    0.51
   2 -18   3    2.06    0.52
  -2 -18  -3    1.80    0.47
   2 -18   4    8.30    1.38
  -2 -18  -4    7.64    0.85
   2 -18   5    2.41    0.74
   2 -18   6    3.88    0.91
   2 -18   7    0.16    0.25
   2 -18   8    0.24    0.18
  -2 -19   8    3.71    0.60
  -2 -19   7    0.63    0.28
  -2 -19   6    0.06    0.25
  -2 -19   6    0.01    0.11
  -2 -19   5   -0.07    0.11
  -2 -19   5   -0.06    0.24
  -2 -19   4    2.37    0.49
  -2 -19   4    3.32    0.77
  -2 -19   3    0.36    0.35
  -2 -19   3    0.14    0.16
  -2 -19   2    4.29    0.71
  -2 -19   1    0.20    0.22
  -2 -19   0    0.56    0.29
   2 -19   0    0.23    0.13
   2 -19   1    0.09    0.11
  -2 -19  -1   -0.07    0.13
   2 -19   2   -0.12    0.22
   2 -19   2    0.17    0.17
  -2 -19  -2    0.22    0.16
  -2 -19  -3    1.09    0.36
   2 -19   3    0.23    0.26
   2 -19   4    0.22    0.38
   2 -19   5    4.22    0.87
   2 -19   6    0.09    0.24
   2 -19   7    0.16    0.26
  -2 -20   7    0.34    0.22
  -2 -20   6    0.49    0.30
  -2 -20   5    0.36    0.19
  -2 -20   5    1.15    0.48
  -2 -20   4    0.57    0.25
  -2 -20   4    0.04    0.27
  -2 -20   3    0.37    0.26
  -2 -20   3    0.89    0.33
  -2 -20   2   -0.05    0.19
  -2 -20   1    4.25    0.66
  -2 -20   0   -0.03    0.15
   2 -20   0   -0.01    0.09
   2 -20   0    0.28    0.25
  -2 -20  -1   -0.17    0.17
   2 -20   1    0.36    0.36
  -2 -20  -2    1.22    0.33
   2 -20   2    1.30    0.48
  -2 -20  -3    0.08    0.16
   2 -20   3    0.13    0.27
   2 -20   4    1.40    0.49
   2 -20   5   -0.07    0.25
   2 -20   6    0.67    0.29
  -2 -21   6    0.48    0.23
  -2 -21   5    0.88    0.29
  -2 -21   4    0.29    0.19
  -2 -21   4    1.07    0.30
  -2 -21   3    0.79    0.29
  -2 -21   2    0.03    0.10
  -2 -21   1    0.22    0.18
  -2 -21   0    1.80    0.38
  -2 -21  -1    0.17    0.15
   2 -21   1   -0.15    0.19
  -2 -21  -2    0.40    0.17
   2 -21   2    0.22    0.28
   2 -21   3    0.49    0.22
  -2 -21  -3    0.85    0.23
   2 -21   4    0.47    0.28
   2 -21   5    1.28    0.38
  -2 -22   4    1.18    0.27
  -2 -22   3    0.72    0.22
  -2 -22   2    0.09    0.10
  -2 -22   1    0.72    0.22
  -2 -22   0    0.11    0.07
  -2 -22  -1    0.04    0.08
  -2 -22  -2    2.41    0.35
   2 -22   2    1.26    0.36
   2 -22   3    0.32    0.25
   2 -22   4   -0.10    0.14
  -2 -23   2    3.35    0.41
  -2 -23   1    2.40    0.35
  -2 -23   0    8.05    0.62
  -3   0  13    4.65    0.71
  -3   0  12    0.21    0.22
  -3   0  11    1.10    0.50
  -3   0  10   -0.16    0.22
   3   0  -9   22.09    2.61
  -3   0   9   19.29    1.76
  -3   0   8    0.14    0.19
   3   0  -8   -0.84    0.51
   3   0  -7   22.15    2.31
  -3   0   6    0.20    0.13
   3   0  -6   -0.11    0.26
   3   0  -5    0.78    0.40
  -3   0   5    1.03    0.31
  -3   0   4   -0.09    0.21
  -3   0   4    0.03    0.08
  -3   0   3    0.41    0.14
  -3   0   3    0.28    0.19
  -3   0   2   -0.24    0.17
  -3   0   2    0.04    0.04
  -3   0   1   63.90    2.17
   3   0  -1   56.66    1.44
   3   0   0    0.02    0.07
   3   0   1  187.68    3.38
   3   0   2    0.09    0.12
   3   0   3  594.09    7.83
  -3   0  -3  586.19    7.57
   3   0   4   -0.20    0.19
  -3   0  -4    0.17    0.48
   3   0   5   16.54    1.70
  -3   0  -5   19.11    1.80
  -3   0  -6    0.04    0.24
  -3   0  -7   70.54    3.42
  -3   0  -7   82.63    4.52
  -3   0  -8    3.85    1.27
  -3   0  -8   -0.33    0.40
  -3   0  -9   13.04    1.55
  -3   0 -10    0.05    0.28
  -3   0 -11    0.04    0.26
  -3   0 -12    0.04    0.24
  -3   0 -13    0.67    0.25
  -3   0 -13    2.38    0.38
  -3  -1  13   -0.06    0.17
  -3   1  13   -0.15    0.21
  -3  -1  12    6.91    1.00
  -3   1  12    6.97    1.02
  -3  -1  11    5.88    1.01
  -3   1  11    4.88    0.89
  -3   1  10    2.67    0.67
  -3  -1  10    3.84    0.80
  -3  -1   9    0.28    0.22
  -3   1   9    0.17    0.23
   3  -1  -9   -0.47    0.45
   3   1  -9    0.50    0.58
  -3   1   8    3.76    0.71
  -3  -1   8    3.98    0.76
   3  -1  -8    4.40    1.12
   3   1  -8    4.49    1.13
   3   1  -7   -0.23    0.32
  -3  -1   7   -0.15    0.34
   3  -1  -7    0.16    0.39
  -3   1   6   50.23    2.44
   3  -1  -6   54.24    3.28
   3   1  -6   48.68    3.06
  -3  -1   6   47.91    2.42
   3   1  -5    0.06    0.18
  -3   1   5    0.22    0.10
  -3  -1   4   79.73    3.12
   3   1  -4   79.66    3.16
  -3  -1   4   82.09    2.45
  -3   1   4   81.94    2.16
  -3  -1   3   26.03    1.67
  -3   1   3   23.33    0.84
  -3  -1   3   23.85    1.13
  -3   1   2  344.34    5.29
  -3  -1   2  313.22    3.60
   3   1  -1  209.29    2.37
  -3   1   1  222.21    3.90
   3   1   0   19.62    0.88
   3  -1   0   20.86    1.05
   3   1   1   47.05    1.63
   3  -1   1   49.96    1.79
   3   1   2  159.12    3.54
   3  -1   2  156.98    3.64
   3   1   3  164.47    4.09
   3  -1   3  158.84    4.10
  -3   1  -3  162.06    4.06
  -3  -1  -3  166.40    3.84
   3   1   4  141.13    4.35
  -3  -1  -4  152.68    4.32
   3  -1   4  140.96    4.38
  -3   1  -4  153.18    4.73
  -3  -1  -5   21.40    1.87
   3  -1   5   19.15    1.84
  -3   1  -5   20.97    1.95
  -3  -1  -6   20.91    2.07
   3  -1   6   18.61    2.07
  -3   1  -6   19.90    2.11
  -3   1  -7   29.45    2.79
  -3  -1  -7   30.77    2.74
  -3  -1  -7   26.13    2.07
  -3  -1  -8   13.17    1.52
  -3   1  -8   11.27    1.46
  -3  -1  -8   15.42    2.05
  -3   1  -8   13.47    2.00
  -3   1  -9    2.94    0.82
  -3  -1  -9    2.62    0.72
  -3  -1 -10   26.63    2.11
  -3   1 -10   24.90    2.09
  -3  -1 -11    1.95    0.55
  -3   1 -11    3.33    0.77
  -3  -1 -12   -0.17    0.24
  -3   1 -12   -0.09    0.14
  -3   1 -13    0.08    0.11
  -3  -1 -13   -0.08    0.09
  -3  -1 -13   -0.07    0.10
  -3   2  13    0.71    0.30
  -3  -2  12    0.54    0.35
  -3   2  12    0.59    0.36
  -3  -2  11    0.56    0.38
  -3   2  11    0.07    0.23
  -3  -2  10   15.13    1.59
  -3   2  10   16.50    1.70
   3   2  -9   20.51    2.55
  -3  -2   9   18.94    1.71
  -3   2   9   19.47    1.75
   3  -2  -9   21.26    2.66
  -3  -2   8   -0.02    0.17
   3  -2  -8    0.24    0.48
   3   2  -8    0.55    0.36
   3  -2  -7   20.76    2.32
   3   2  -7   16.97    1.99
  -3  -2   7   19.61    1.81
  -3  -2   6  160.12    4.68
   3   2  -6  158.03    5.49
   3  -2  -6  173.83    5.96
  -3  -2   5   87.87    3.59
   3   2  -5   83.36    3.66
  -3  -2   5   89.85    3.09
  -3  -2   4  153.38    4.32
   3   2  -4  150.36    4.32
  -3  -2   4  149.99    3.56
  -3  -2   3    1.68    0.33
  -3  -2   3    1.94    0.48
   3   2  -3    1.53    0.40
  -3   2   3    1.43    0.18
  -3  -2   2    6.06    0.57
  -3   2   2    5.11    0.66
  -3   2   1  191.68    3.52
   3   2  -1  175.28    1.80
  -3   2   0   68.31    1.92
   3   2   0   75.37    1.60
   3  -2   1   14.18    1.02
   3   2   1   13.89    0.92
   3  -2   2    1.60    0.41
  -3  -2  -2    2.66    0.38
   3   2   2    1.88    0.39
   3  -2   3  185.55    4.55
   3   2   3  187.79    4.50
  -3  -2  -3  182.08    3.76
  -3   2  -3  174.28    4.36
   3  -2   4    1.01    0.48
  -3  -2  -4    1.50    0.45
  -3   2  -4    1.45    0.51
  -3   2  -5    3.80    0.95
  -3  -2  -5    4.55    0.93
   3  -2   5    3.51    0.82
  -3  -2  -6    0.02    0.38
  -3   2  -6    0.18    0.29
  -3  -2  -7    1.20    0.39
  -3   2  -7    0.68    0.50
  -3  -2  -7    1.20    0.48
  -3  -2  -8   20.28    1.86
  -3   2  -8   21.95    2.56
  -3  -2  -9    2.59    0.92
  -3   2  -9    0.03    0.28
  -3   2 -10    4.16    0.93
  -3  -2 -10    4.27    0.86
  -3  -2 -11    0.61    0.40
  -3   2 -11    0.15    0.28
  -3  -2 -12    0.61    0.30
  -3   2 -12    1.03    0.36
  -3  -2 -13    3.10    0.42
  -3   2 -13    0.70    0.24
  -3  -2 -13    0.56    0.22
  -3   2 -13    2.79    0.41
  -3   3  13    1.86    0.48
  -3   3  12    2.09    0.58
  -3   3  11   21.61    1.93
  -3  -3  11   23.16    1.91
  -3   3  10   60.14    3.20
  -3  -3  10   65.88    3.29
  -3   3   9   72.61    3.43
  -3  -3   9   72.31    3.41
   3  -3  -9   76.40    4.98
   3   3  -9   69.67    4.58
  -3  -3   8   19.90    1.95
  -3  -3   8   19.79    1.69
  -3   3   8   18.95    1.66
   3   3  -8   19.22    2.29
   3  -3  -8   19.75    2.44
   3   3  -7    3.74    0.90
  -3  -3   7    4.31    0.87
   3  -3  -7    3.38    0.96
  -3  -3   6   48.21    2.65
   3   3  -6   47.89    2.94
   3   3  -5   16.51    1.60
  -3  -3   5   17.37    1.45
  -3  -3   5   17.20    1.61
  -3  -3   4  196.17    4.97
  -3  -3   4  208.90    4.48
   3   3  -4  200.15    4.89
  -3  -3   3    9.81    0.88
  -3  -3   3   10.21    1.09
   3   3  -3    9.35    0.91
   3   3  -2   19.57    1.06
  -3  -3   2   18.93    1.14
  -3   3   1   41.42    1.71
  -3  -3   1   38.38    1.58
   3  -3   0   17.06    1.08
   3  -3   0   18.52    0.75
  -3   3   0   15.76    0.91
   3  -3   1   43.31    1.83
  -3   3  -1   31.65    1.09
  -3  -3  -2   41.11    1.17
   3  -3   2   47.25    2.15
   3  -3   3   35.74    2.09
  -3  -3  -3   36.83    1.64
  -3  -3  -4    0.30    0.19
   3  -3   4    0.11    0.19
  -3   3  -4    0.04    0.17
   3  -3   5   24.31    2.12
  -3  -3  -5   27.60    2.04
  -3   3  -5   26.27    2.29
   3  -3   6    0.52    0.39
  -3   3  -6    0.69    0.41
  -3  -3  -6    0.37    0.19
  -3   3  -7    2.69    0.92
   3  -3   7    1.54    0.67
  -3  -3  -7    1.85    0.55
  -3  -3  -8    0.12    0.21
  -3   3  -8   -0.46    0.43
  -3   3  -9    1.22    0.57
  -3  -3  -9    3.13    0.76
  -3   3 -10   14.63    1.63
  -3  -3 -10   16.85    1.61
  -3  -3 -11    0.50    0.28
  -3   3 -11   -0.06    0.20
   3   3  12    2.46    0.49
  -3  -3 -12    2.24    0.46
  -3   3 -12    2.43    0.54
  -3   3 -13    0.17    0.14
  -3  -3 -13    0.17    0.10
  -3   4  13    0.05    0.15
   3   4 -12    0.58    0.36
  -3   4  12    2.63    0.68
  -3   4  11    4.86    0.95
  -3   4  10    4.37    0.87
  -3  -4   9   -0.30    0.50
   3  -4  -9   -0.37    0.35
   3   4  -9    0.87    0.72
  -3   4   9    0.17    0.23
  -3  -4   8   17.60    1.90
   3  -4  -8   18.10    2.39
  -3   4   8   15.27    1.55
   3   4  -8   14.28    1.94
  -3  -4   8   17.79    1.97
  -3  -4   7   -0.10    0.13
   3  -4  -7    0.26    0.23
   3   4  -7    0.12    0.20
   3   4  -6    7.23    1.18
  -3  -4   6    6.99    1.08
   3   4  -5    1.03    0.42
  -3  -4   5    1.29    0.41
  -3  -4   5    1.77    0.58
  -3  -4   4   18.95    1.59
   3   4  -4   19.36    1.49
  -3  -4   4   21.50    1.51
  -3  -4   3    0.08    0.10
   3   4  -3    0.24    0.12
  -3  -4   3   -0.01    0.17
  -3  -4   2   10.54    0.95
   3   4  -2    9.99    0.71
  -3  -4   1   34.50    1.65
   3  -4   0   48.32    1.38
   3  -4   0   51.20    1.96
   3  -4   1   14.19    1.14
   3  -4   1   11.91    0.89
   3  -4   2  147.30    3.85
   3  -4   3   25.65    1.85
  -3  -4  -3   29.40    1.40
   3  -4   4    0.65    0.39
  -3  -4  -4    0.52    0.26
   3  -4   5   -0.27    0.28
  -3   4  -5    0.30    0.29
   3  -4   6    5.03    1.18
  -3   4  -6    4.88    1.11
   3  -4   7    8.26    1.61
  -3  -4  -7    8.32    1.13
  -3   4  -7    8.20    1.44
  -3   4  -8   10.34    1.72
  -3  -4  -8    9.35    1.26
   3  -4   8   10.36    1.85
  -3  -4  -9    0.65    0.35
  -3  -4 -10   11.98    1.35
  -3   4 -10   10.99    1.45
  -3   4 -11    0.35    0.27
  -3  -4 -11   -0.06    0.18
   3   4  12    3.90    0.64
  -3  -4 -12    3.76    0.57
  -3   4 -12    3.34    0.58
  -3   4 -13    0.01    0.10
  -3  -4 -13   -0.26    0.15
  -3   4 -13    0.10    0.12
  -3   5  13    0.19    0.16
   3   5 -12   -0.07    0.20
  -3   5  12    0.26    0.24
  -3   5  11    2.29    0.63
  -3   5  10    0.20    0.18
  -3   5   9    0.40    0.23
   3  -5  -9    0.04    0.28
   3   5  -9    0.00    0.41
  -3   5   8    0.13    0.21
  -3  -5   8    0.36    0.44
   3  -5  -8    0.46    0.49
   3   5  -8   -0.20    0.45
  -3  -5   8   -0.04    0.17
   3   5  -7    2.75    0.83
   3  -5  -7    3.08    0.98
  -3  -5   7    3.03    0.81
  -3  -5   6    2.66    0.73
  -3  -5   6    2.85    0.74
   3   5  -6    2.05    0.62
  -3  -5   5   -0.08    0.18
  -3  -5   5    0.01    0.18
   3   5  -5    0.41    0.34
  -3  -5   4   11.06    1.28
  -3  -5   4   11.76    1.21
   3   5  -4   11.50    1.16
  -3  -5   3    5.58    0.86
   3   5  -3    5.76    0.68
  -3  -5   3    6.52    0.85
  -3  -5   2   84.35    2.92
   3   5  -2   80.82    1.87
  -3  -5   1    4.03    0.63
   3  -5   0   13.15    1.06
   3  -5   0   12.04    0.80
   3  -5   1  258.98    5.06
   3  -5   1  239.04    4.21
   3  -5   2    6.23    0.82
   3  -5   2    7.39    0.92
   3  -5   3  100.40    3.77
   3  -5   3   85.10    3.50
   3  -5   4   39.66    2.61
   3  -5   4   36.03    2.60
   3  -5   5    0.68    0.31
   3  -5   5    1.13    0.54
   3  -5   6    4.35    1.09
   3  -5   6    4.07    1.02
   3  -5   7   31.05    3.10
  -3  -5  -7   34.84    2.33
   3  -5   7   32.89    3.20
   3  -5   8   32.61    3.30
  -3  -5  -8   36.23    2.43
  -3  -5  -9   35.45    2.37
  -3  -5 -10   20.94    1.73
  -3   5 -10   16.98    1.80
  -3   5 -11    0.03    0.26
  -3  -5 -11    0.05    0.16
  -3  -5 -12    0.23    0.16
   3   5  12    0.94    0.33
  -3  -5 -12    0.75    0.28
  -3   5 -12    1.23    0.38
  -3  -5 -13    0.60    0.18
  -3   6  13    1.67    0.45
  -3   6  12    6.46    0.99
  -3   6  11    0.65    0.33
  -3   6  10    8.53    1.25
  -3  -6  10    9.67    1.39
  -3   6   9    1.11    0.49
  -3  -6   9    0.58    0.37
  -3  -6   8    0.79    0.48
  -3   6   8    0.87    0.36
  -3  -6   8    0.89    0.45
   3  -6  -8    0.58    0.37
   3   6  -8    0.00    0.28
  -3  -6   7    3.79    0.94
  -3  -6   7    3.63    0.87
   3   6  -7    4.64    1.03
  -3   6   7    4.45    0.83
  -3  -6   6    1.78    0.62
   3   6  -6    1.24    0.51
  -3  -6   6    1.60    0.55
  -3  -6   5    2.70    0.67
   3   6  -5    2.66    0.64
  -3  -6   5    3.52    0.77
  -3  -6   4    2.89    0.70
   3   6  -4    1.97    0.52
  -3  -6   4    2.20    0.57
  -3  -6   3  190.66    5.24
   3   6  -3  196.16    3.85
  -3  -6   3  196.06    4.94
  -3  -6   2   12.21    1.20
  -3  -6   1   53.95    2.44
   3  -6   0    0.88    0.23
   3  -6   0    0.81    0.28
   3  -6   1    2.11    0.50
   3  -6   1    2.57    0.48
   3  -6   2   10.92    1.14
   3  -6   2   10.88    1.20
   3  -6   3  189.85    5.38
   3  -6   3  173.62    4.98
   3  -6   4   21.47    1.96
   3  -6   4   24.70    2.15
   3  -6   5   68.07    3.87
   3  -6   5   69.86    3.98
   3  -6   6    0.58    0.38
  -3  -6  -6    0.31    0.17
   3  -6   6    0.98    0.58
   3  -6   7    0.93    0.63
   3  -6   7    1.44    0.63
  -3  -6  -7    1.48    0.48
   3  -6   8    4.34    1.19
  -3  -6  -8    5.80    0.94
  -3  -6  -9   18.41    1.68
  -3  -6 -10    2.50    0.60
  -3   6 -10    1.01    0.49
  -3  -6 -11   -0.30    0.20
  -3  -6 -11    0.11    0.18
  -3  -6 -12   -0.24    0.17
  -3   6 -12   -0.24    0.13
  -3   7  13    0.93    0.33
  -3   7  12    0.28    0.21
  -3   7  11   10.51    1.36
  -3   7  10    0.18    0.21
  -3  -7  10   -0.32    0.40
  -3  -7   9    1.29    0.65
  -3   7   9    0.97    0.37
  -3  -7   8    9.12    1.55
  -3  -7   8   11.28    1.68
  -3   7   8   10.74    1.36
   3  -7  -8   11.01    1.97
   3   7  -8    9.22    1.56
  -3  -7   7    8.38    1.40
  -3   7   7    8.58    1.16
   3   7  -7    8.10    1.36
  -3  -7   7    7.84    1.35
  -3  -7   6    2.98    0.76
   3   7  -6    4.10    0.91
  -3  -7   6    3.43    0.82
  -3  -7   5    0.39    0.34
   3   7  -5    1.98    0.58
  -3  -7   5    1.33    0.58
  -3  -7   4   63.71    3.23
   3   7  -4   71.44    2.75
  -3  -7   4   64.95    3.21
  -3  -7   3   98.67    3.72
  -3  -7   2   19.64    1.59
  -3  -7   1    3.81    0.74
   3  -7   0   46.59    2.26
   3  -7   0   45.80    1.94
   3  -7   1   12.89    1.27
   3  -7   1   11.61    1.07
   3  -7   2    1.64    0.46
   3  -7   2    1.85    0.45
   3  -7   3   33.34    2.31
   3  -7   3   32.73    2.35
   3  -7   4   68.17    3.66
   3  -7   4   63.37    3.55
   3  -7   5    5.67    1.17
   3  -7   5    5.92    1.17
   3  -7   6   26.64    2.68
  -3  -7  -6   29.29    2.06
   3  -7   6   26.80    2.76
   3  -7   7    6.81    1.52
   3  -7   7    7.06    1.54
  -3  -7  -7    8.81    1.18
  -3  -7  -8    0.92    0.57
  -3  -7  -9    0.53    0.42
  -3  -7 -10    0.34    0.33
  -3   7 -11   -0.23    0.29
  -3  -7 -11    0.31    0.22
   3   7  12    1.89    0.44
  -3  -7 -12    1.71    0.35
  -3   7 -12    1.29    0.34
  -3   8  13    0.21    0.18
  -3   8  12    1.01    0.42
  -3   8  11    0.51    0.31
  -3  -8  10    0.55    0.26
  -3   8  10    0.78    0.39
  -3   8   9    2.04    0.68
  -3  -8   9    1.76    0.64
  -3   8   8    5.62    1.04
  -3  -8   8    5.13    1.14
  -3  -8   8    4.45    1.14
   3  -8  -8    5.02    1.36
  -3  -8   7    6.26    1.28
  -3   8   7    7.76    1.15
  -3  -8   7    7.24    1.24
  -3  -8   6   15.00    1.79
  -3  -8   6   12.34    1.60
  -3  -8   6   12.26    1.69
  -3  -8   5    1.47    0.50
  -3  -8   5    2.28    0.75
  -3  -8   4    2.15    0.63
  -3  -8   4    2.00    0.62
  -3  -8   3    3.12    0.72
  -3  -8   2    3.13    0.69
  -3  -8   1    0.48    0.33
   3  -8   0  155.29    3.95
   3  -8   0  156.51    4.28
   3  -8   1   61.76    2.71
   3  -8   1   64.35    2.95
   3  -8   2  151.14    4.71
   3  -8   2  147.81    4.54
   3  -8   3    0.62    0.40
   3  -8   3    0.45    0.37
   3  -8   4    2.86    0.79
   3  -8   4    2.86    0.80
   3  -8   5    0.15    0.38
   3  -8   5    0.50    0.53
   3  -8   6   20.66    2.45
  -3  -8  -6   24.10    1.86
   3  -8   6   23.02    2.61
  -3  -8  -7    1.80    0.59
   3  -8   7    1.23    0.70
   3  -8   7    2.60    0.93
  -3  -8  -8   11.73    1.37
  -3  -8  -9    3.28    0.72
  -3  -8 -10    0.99    0.35
  -3  -8 -11    2.36    0.47
  -3   8 -11    1.72    0.52
   3   8  12    1.47    0.37
  -3  -8 -12    1.80    0.34
  -3   8 -12    0.68    0.23
  -3   9  13   12.26    1.00
  -3   9  12    0.29    0.22
  -3   9  11    2.63    0.64
  -3  -9  11    2.14    0.55
  -3  -9  10    2.40    0.69
  -3   9  10    4.05    0.87
  -3  -9   9    1.56    0.65
  -3   9   9    1.24    0.61
  -3   9   8    4.24    0.86
  -3  -9   8    3.18    0.87
  -3  -9   7    1.77    0.70
  -3  -9   7    1.94    0.76
  -3   9   7    2.82    0.74
  -3  -9   6   34.48    2.76
  -3   9   6   37.11    2.44
  -3  -9   6   32.01    2.82
  -3  -9   5   17.64    1.81
  -3  -9   5   18.63    2.03
  -3  -9   4   -0.08    0.19
  -3  -9   4    0.07    0.30
  -3  -9   3   10.31    1.40
  -3  -9   2   17.06    1.71
  -3  -9   1    8.27    1.20
   3  -9   0   11.06    1.14
   3  -9   0   10.48    1.14
   3  -9   1   91.96    3.71
   3  -9   1   90.33    3.49
   3  -9   2    7.22    1.09
   3  -9   2    7.33    1.07
   3  -9   3   -0.01    0.25
   3  -9   3    0.16    0.22
   3  -9   4   45.30    3.20
   3  -9   4   51.14    3.44
   3  -9   5   45.02    3.37
  -3  -9  -5   54.70    2.72
   3  -9   5   53.91    3.84
  -3  -9  -6    8.63    1.17
   3  -9   6    8.39    1.69
   3  -9   6    6.42    1.43
   3  -9   7    1.09    0.84
  -3  -9  -7    0.52    0.36
  -3  -9  -8    8.71    1.20
  -3  -9  -9    0.45    0.31
  -3  -9 -10    2.24    0.54
  -3  -9 -11    0.63    0.23
  -3   9 -11    0.37    0.26
   3   9  12   -0.05    0.11
  -3  -9 -12    0.06    0.09
  -3  10  12    3.24    0.61
  -3 -10  11    1.12    0.42
  -3  10  11    0.03    0.18
  -3  10  10    0.51    0.25
  -3 -10  10    0.50    0.22
  -3 -10   9   -0.12    0.44
  -3  10   9   -0.17    0.24
  -3 -10   8    2.82    0.85
  -3  10   8    2.87    0.73
  -3  10   7    0.02    0.22
  -3 -10   7    0.29    0.36
  -3 -10   7   -0.12    0.20
  -3  10   6    1.00    0.47
  -3 -10   6    1.79    0.71
  -3 -10   6    1.18    0.59
  -3 -10   5    1.07    0.53
  -3 -10   5    1.27    0.63
  -3 -10   4   12.19    1.66
  -3 -10   4   12.24    1.53
  -3 -10   3    8.21    1.30
  -3 -10   2    3.52    0.88
  -3 -10   1   13.10    1.61
   3 -10  -1   15.05    1.46
   3 -10   0    5.91    0.92
   3 -10   0    5.88    0.89
   3 -10   1   14.08    1.53
   3 -10   1   15.68    1.54
   3 -10   2   11.30    1.43
   3 -10   2   14.15    1.61
   3 -10   3   52.90    3.27
   3 -10   3   53.82    3.37
   3 -10   4   19.60    2.20
  -3 -10  -4   19.33    1.57
   3 -10   4   17.66    2.02
   3 -10   5   11.84    1.86
  -3 -10  -5   12.52    1.35
   3 -10   5    9.39    1.60
   3 -10   6    7.36    1.56
   3 -10   6    7.91    1.60
  -3 -10  -6   10.84    1.34
   3 -10   7   -0.19    0.38
  -3 -10  -7    2.83    0.81
  -3 -10  -8    0.37    0.25
  -3 -10  -9    0.48    0.32
  -3 -10 -10    2.44    0.56
  -3 -10 -11    0.27    0.17
  -3  10 -11    0.44    0.24
   3  10  12    0.70    0.22
  -3  11  12    0.33    0.21
  -3 -11  11   -0.37    0.29
  -3  11  11    0.46    0.22
  -3  11  10   11.12    1.34
  -3 -11  10   10.31    1.34
  -3  11   9    0.80    0.43
  -3 -11   9    0.49    0.33
  -3 -11   8   11.04    1.63
  -3  11   8   13.55    1.60
  -3 -11   7   57.49    3.67
  -3  11   7   64.89    3.38
  -3 -11   6   59.76    4.13
  -3 -11   6   65.02    2.62
  -3 -11   6   64.00    3.81
  -3 -11   5   63.93    4.11
  -3 -11   5   63.40    3.67
  -3 -11   5   60.31    2.49
  -3 -11   4   15.42    1.25
  -3 -11   4   16.66    1.85
  -3 -11   4   14.92    1.93
  -3 -11   3    0.10    0.31
  -3 -11   2    4.65    1.00
   3 -11  -1   18.47    1.70
   3 -11   0    8.52    1.18
   3 -11   1    1.14    0.47
   3 -11   1    0.78    0.37
   3 -11   2    0.14    0.35
   3 -11   2    0.27    0.18
   3 -11   3   -0.66    0.35
  -3 -11  -3   -0.15    0.28
  -3 -11  -3    0.05    0.15
   3 -11   3    0.34    0.22
   3 -11   3   -0.38    0.44
  -3 -11  -4    6.11    0.93
   3 -11   4    6.87    1.32
  -3 -11  -4    8.84    1.09
   3 -11   4    7.92    1.42
  -3 -11  -5    7.00    1.07
   3 -11   5    6.78    1.39
   3 -11   5    7.16    1.46
  -3 -11  -6    0.33    0.15
  -3 -11  -6    0.38    0.29
   3 -11   6    0.75    0.52
   3 -11   7    0.99    0.44
  -3 -11  -7    2.13    0.60
  -3 -11  -8    4.02    0.80
  -3 -11  -9    2.60    0.59
  -3 -11 -10    0.94    0.31
  -3 -11 -11    0.14    0.15
  -3  11 -11    0.12    0.16
  -3 -12  11    2.03    0.49
  -3  12  11    3.48    0.64
  -3 -12  10    0.98    0.47
  -3  12  10    0.94    0.41
  -3  12   9   23.14    1.97
  -3 -12   9   20.65    2.04
  -3 -12   8    8.75    1.43
  -3  12   8   10.94    1.38
  -3 -12   7    8.61    1.41
  -3 -12   6   90.36    4.53
  -3 -12   6   87.19    3.12
  -3 -12   6   90.57    5.39
  -3 -12   5   71.10    4.56
  -3 -12   5   73.12    4.00
  -3 -12   5   72.57    2.82
  -3 -12   4    7.53    1.26
  -3 -12   4    6.12    1.27
  -3 -12   4    7.53    0.89
  -3 -12   3   17.01    2.06
  -3 -12   3   18.56    1.94
  -3 -12   3   16.97    1.92
  -3 -12   3   16.96    1.35
  -3 -12   2    4.02    0.99
  -3 -12   2    4.12    0.67
   3 -12  -1    0.04    0.28
   3 -12   0    4.23    0.97
   3 -12   1    5.46    1.05
  -3 -12  -1    5.53    0.82
  -3 -12  -1    6.06    0.89
   3 -12   2   98.86    3.45
  -3 -12  -2   93.23    3.52
  -3 -12  -2  103.91    3.67
   3 -12   2   99.87    4.51
   3 -12   3    6.83    1.29
   3 -12   3    5.94    0.91
  -3 -12  -3    5.10    0.84
  -3 -12  -3    5.44    0.86
   3 -12   3    4.15    1.00
   3 -12   4   -0.60    0.56
   3 -12   4    0.09    0.38
  -3 -12  -4   -0.06    0.13
  -3 -12  -4    0.30    0.25
   3 -12   5    0.69    0.46
   3 -12   5    1.31    0.73
  -3 -12  -5    0.19    0.12
  -3 -12  -5    0.51    0.40
  -3 -12  -6    4.13    0.75
  -3 -12  -6    4.34    0.88
   3 -12   7    2.48    0.70
  -3 -12  -7    3.59    0.76
   3 -12   8    0.76    0.46
  -3 -12  -8    0.16    0.25
  -3 -12  -9    1.99    0.50
  -3 -12 -10    0.49    0.25
  -3  12 -10    0.50    0.27
   3  12  11   13.10    0.98
  -3 -12 -11   14.03    0.87
  -3  13  11    1.59    0.37
  -3 -13  11    0.59    0.25
  -3 -13  10    0.61    0.35
  -3  13  10    1.05    0.34
  -3 -13   9    0.11    0.25
  -3  13   9   -0.04    0.15
  -3 -13   8    0.22    0.29
  -3 -13   7    2.12    0.75
  -3 -13   7    2.33    0.52
  -3 -13   6   -0.09    0.14
  -3 -13   6    0.23    0.42
  -3 -13   5    0.47    0.27
  -3 -13   5    0.16    0.15
  -3 -13   4    0.89    0.57
  -3 -13   4    1.60    0.44
  -3 -13   4    2.35    0.73
  -3 -13   3   11.34    1.53
  -3 -13   3   11.01    1.11
  -3 -13   3    9.19    1.59
   3 -13  -2    0.26    0.27
  -3 -13   2    0.98    0.54
  -3 -13   2    0.68    0.39
  -3 -13   2    0.38    0.27
  -3 -13   1    7.02    0.91
   3 -13  -1    6.08    1.05
   3 -13   0   30.65    2.47
  -3 -13   0   31.40    1.97
   3 -13   1   42.80    2.98
   3 -13   1   40.14    2.10
  -3 -13  -1   42.13    2.34
  -3 -13  -1   36.63    2.28
  -3 -13  -2   12.76    1.32
   3 -13   2   12.59    1.28
  -3 -13  -2   10.93    1.36
   3 -13   2   13.09    1.69
   3 -13   3    1.11    0.40
  -3 -13  -3    0.61    0.35
  -3 -13  -3    1.15    0.52
   3 -13   3    0.87    0.54
  -3 -13  -4   37.01    2.30
  -3 -13  -4   37.18    2.51
   3 -13   4   35.62    3.15
  -3 -13  -5    5.82    0.90
  -3 -13  -5    5.93    0.99
  -3 -13  -6    5.15    0.82
  -3 -13  -6    6.19    0.99
  -3 -13  -7   18.94    1.68
   3 -13   7   17.16    1.92
   3 -13   8   -0.26    0.27
  -3 -13  -8    0.13    0.27
  -3 -13  -9    0.88    0.36
  -3 -13 -10    7.93    0.79
  -3  13 -10    2.89    0.49
  -3 -14  10    0.07    0.19
  -3 -14   9    0.52    0.40
  -3 -14   8    0.18    0.39
  -3 -14   7    0.69    0.48
  -3 -14   7    1.15    0.38
  -3 -14   6   19.92    2.13
  -3 -14   6   19.10    1.48
  -3 -14   5    2.27    0.75
  -3 -14   5    2.13    0.50
  -3 -14   4    3.31    0.98
  -3 -14   4    2.63    0.77
  -3 -14   4    3.39    0.66
  -3 -14   3    9.17    1.38
  -3 -14   3    9.53    1.05
  -3 -14   3    8.48    1.59
   3 -14  -3    8.41    1.33
  -3 -14   2    6.22    0.85
  -3 -14   2    6.85    1.14
   3 -14  -2    6.40    1.14
   3 -14  -1   31.63    2.52
  -3 -14   1   34.48    2.05
   3 -14   0   11.41    1.58
  -3 -14   0   11.55    1.21
   3 -14   1    0.35    0.22
   3 -14   1    0.01    0.18
  -3 -14  -1    0.27    0.28
  -3 -14  -2   -0.57    0.34
  -3 -14  -2    0.30    0.19
   3 -14   2    0.11    0.30
   3 -14   2   -0.15    0.26
   3 -14   3    5.57    0.90
  -3 -14  -3    5.94    0.94
   3 -14   3    4.27    1.06
  -3 -14  -3    3.92    0.89
  -3 -14  -4    0.27    0.28
  -3 -14  -4   -0.10    0.26
  -3 -14  -5    8.63    1.09
  -3 -14  -5    9.63    1.23
  -3 -14  -6   16.18    1.56
  -3 -14  -6   14.71    1.32
   3 -14   7   21.40    2.07
  -3 -14  -7   20.42    1.68
   3 -14   8   16.10    1.61
  -3 -14  -8   16.04    1.38
  -3 -14  -9    3.64    0.62
   3  14  10   -0.19    0.14
  -3 -14 -10    0.16    0.12
  -3 -15  10   -0.36    0.20
  -3 -15   9    1.34    0.44
  -3 -15   8    5.14    1.01
  -3 -15   7   -0.18    0.34
  -3 -15   7    0.03    0.08
  -3 -15   6    1.41    0.70
  -3 -15   6    1.81    0.47
  -3 -15   5    2.38    0.70
  -3 -15   5    2.46    0.54
  -3 -15   4    1.19    0.41
  -3 -15   4    0.82    0.48
  -3 -15   3   15.65    1.81
  -3 -15   3   15.31    1.36
  -3 -15   2   38.34    2.73
  -3 -15   2   33.64    2.03
   3 -15  -2   32.50    2.62
   3 -15  -1   27.21    2.47
  -3 -15   1   30.44    1.97
   3 -15   0   11.39    1.10
  -3 -15   0   11.90    1.24
   3 -15   0   10.54    1.58
   3 -15   1    1.40    0.42
  -3 -15  -1    2.15    0.55
   3 -15   1    1.84    0.67
   3 -15   2   12.81    1.33
  -3 -15  -2   12.58    1.34
  -3 -15  -3    5.85    0.94
  -3 -15  -3    3.78    0.89
  -3 -15  -4   17.18    1.54
  -3 -15  -4   15.09    1.62
  -3 -15  -5    1.53    0.44
  -3 -15  -5    1.14    0.43
   3 -15   6    1.34    0.64
  -3 -15  -6    1.27    0.41
   3 -15   7   -0.02    0.22
  -3 -15  -7    0.12    0.18
   3 -15   8    0.40    0.24
  -3 -15  -8    1.13    0.42
  -3 -15  -9   -0.24    0.17
  -3 -16  10    0.12    0.16
  -3 -16   9    0.87    0.36
  -3 -16   8    7.71    1.14
  -3 -16   7    1.68    0.59
  -3 -16   7    1.77    0.41
  -3 -16   6    1.33    0.52
  -3 -16   6    1.51    0.40
  -3 -16   5    2.03    0.74
  -3 -16   5    2.32    0.52
  -3 -16   4    1.19    0.53
  -3 -16   4    1.65    0.45
  -3 -16   3    1.03    0.37
  -3 -16   3    1.22    0.46
  -3 -16   2    1.58    0.63
  -3 -16   2    1.51    0.39
  -3 -16   1    0.17    0.14
  -3 -16   0    0.54    0.29
   3 -16   1    1.00    0.34
  -3 -16  -1    0.72    0.35
   3 -16   2    2.88    0.63
  -3 -16  -2    2.72    0.63
  -3 -16  -3   30.47    2.02
  -3 -16  -4    0.10    0.18
  -3 -16  -5    0.18    0.21
  -3 -16  -5    0.09    0.23
   3 -16   6    1.58    0.54
  -3 -16  -6    1.03    0.42
   3 -16   7    3.54    0.79
  -3 -16  -7    3.73    0.73
   3 -16   8    2.56    0.52
  -3 -17   9    0.56    0.29
  -3 -17   8    0.13    0.23
  -3 -17   7    3.84    0.78
  -3 -17   7    3.82    0.57
  -3 -17   6   -0.06    0.28
  -3 -17   6    0.07    0.11
  -3 -17   5    0.41    0.40
  -3 -17   5    0.02    0.15
  -3 -17   4    0.76    0.41
  -3 -17   4    0.21    0.20
  -3 -17   3    0.71    0.48
  -3 -17   3    1.32    0.42
  -3 -17   2    4.43    0.74
  -3 -17   1    0.39    0.22
  -3 -17   0    2.28    0.55
   3 -17   1    3.79    0.68
  -3 -17  -1    4.39    0.76
  -3 -17  -2    0.38    0.25
  -3 -17  -3    3.64    0.69
  -3 -17  -4    1.38    0.41
   3 -17   5    1.12    0.62
  -3 -17  -5    0.58    0.25
   3 -17   6    0.94    0.45
   3 -17   7    0.69    0.37
   3 -17   8   -0.29    0.24
  -3 -18   9    0.11    0.09
  -3 -18   8    0.64    0.27
  -3 -18   7   -0.35    0.29
  -3 -18   6    0.18    0.25
  -3 -18   6    0.34    0.19
  -3 -18   5    0.23    0.25
  -3 -18   5    0.37    0.20
  -3 -18   4    0.52    0.30
  -3 -18   4    0.12    0.20
  -3 -18   3    0.44    0.33
  -3 -18   3    0.08    0.12
  -3 -18   2    0.75    0.23
  -3 -18   1    4.67    0.76
  -3 -18   0    3.11    0.61
  -3 -18  -1    0.27    0.12
  -3 -18  -2    3.07    0.60
  -3 -18  -3    0.49    0.29
  -3 -18  -4    4.25    0.65
   3 -18   5    0.78    0.52
  -3 -18  -5    0.80    0.27
   3 -18   6    4.03    0.76
   3 -18   7    1.18    0.41
  -3 -19   8    0.03    0.11
  -3 -19   7    1.35    0.40
  -3 -19   6    0.07    0.18
  -3 -19   6    0.25    0.17
  -3 -19   5    1.60    0.38
  -3 -19   5    1.30    0.45
  -3 -19   4    1.57    0.48
  -3 -19   4    2.31    0.49
  -3 -19   3    5.15    0.85
  -3 -19   3    5.07    0.70
  -3 -19   2    0.10    0.12
  -3 -19   1   -0.11    0.22
  -3 -19   0    0.15    0.12
  -3 -19  -1    0.35    0.19
  -3 -19  -2    1.94    0.46
  -3 -19  -3    0.77    0.29
   3 -19   3    1.00    0.53
   3 -19   4    1.18    0.52
  -3 -19  -4    1.15    0.31
   3 -19   5    0.06    0.24
   3 -19   6    3.26    0.63
   3 -19   7   -0.19    0.13
  -3 -20   7    9.02    0.82
  -3 -20   6    1.19    0.38
  -3 -20   5    0.85    0.34
  -3 -20   5    1.06    0.27
  -3 -20   4    2.65    0.56
  -3 -20   4    3.73    0.56
  -3 -20   3   -0.04    0.13
  -3 -20   2    2.07    0.46
  -3 -20   1    3.62    0.60
  -3 -20   0    0.74    0.31
  -3 -20  -1    0.21    0.14
  -3 -20  -2    4.95    0.67
   3 -20   2    5.20    0.96
   3 -20   3    0.14    0.23
  -3 -20  -3    0.29    0.15
   3 -20   4    0.04    0.19
  -3 -20  -4    0.09    0.06
   3 -20   5    0.65    0.30
   3 -20   6    0.46    0.25
  -3 -21   5    0.40    0.14
  -3 -21   5    0.70    0.17
  -3 -21   4    2.25    0.39
  -3 -21   3   -0.05    0.09
  -3 -21   2    0.11    0.14
  -3 -21   1    1.42    0.36
   3 -21   0   -0.03    0.17
  -3 -21   0   -0.10    0.16
  -3 -21  -1    0.03    0.11
   3 -21   1    0.17    0.27
   3 -21   2    0.65    0.39
  -3 -21  -2    0.34    0.17
   3 -21   3    1.08    0.40
  -3 -21  -3    0.78    0.21
   3 -21   4    0.48    0.24
   3 -21   5    0.16    0.14
  -3 -22   4    0.67    0.18
  -3 -22   3    0.04    0.11
  -3 -22   2    0.10    0.11
  -3 -22   1    2.16    0.38
  -3 -22   0    2.70    0.42
  -3 -22  -1    0.71    0.22
   3 -22   1    0.49    0.29
   3 -22   2    0.29    0.16
  -3 -22  -2    0.28    0.12
   3 -22   3    0.97    0.29
  -4   0  13    0.32    0.22
  -4   0  12    2.21    0.58
  -4   0  11   -0.05    0.22
  -4   0  10    0.18    0.23
   4   0  -9   -0.20    0.42
  -4   0   9   -0.11    0.19
  -4   0   8    6.70    1.07
   4   0  -8    6.02    1.33
   4   0  -7   -0.19    0.24
   4   0  -6  175.60    6.29
   4   0  -5    0.05    0.27
  -4   0   4    0.30    0.29
  -4   0   3    0.01    0.16
  -4   0   2    8.77    1.01
   4   0  -2    8.37    0.65
  -4   0   1    0.04    0.17
   4   0  -1    0.06    0.08
   4   0   0   19.26    1.08
   4   0   1    0.24    0.14
   4   0   2   40.16    1.98
   4   0   3   -0.33    0.27
   4   0   4  891.06   11.62
  -4   0  -5    0.31    0.27
   4   0   5   -0.04    0.39
  -4   0  -6   79.15    3.90
  -4   0  -7   -0.05    0.38
  -4   0  -8    0.48    0.37
  -4   0  -9   -0.12    0.22
  -4   0 -10    1.62    0.51
  -4   0 -11   -0.45    0.27
  -4   0 -12    5.01    0.63
  -4   0 -12    2.77    0.56
  -4  -1  13    0.45    0.23
  -4   1  13    0.19    0.17
  -4  -1  12   -0.14    0.20
  -4   1  12   -0.12    0.21
  -4  -1  11    0.19    0.26
  -4   1  11    0.24    0.37
  -4  -1  10    0.19    0.25
  -4   1  10    0.07    0.26
  -4  -1   9   11.22    1.42
  -4   1   9   10.83    1.42
   4  -1  -9   12.85    2.12
   4   1  -9   11.62    1.97
  -4  -1   8    5.55    1.04
  -4   1   8    5.26    0.94
   4   1  -8    4.79    1.20
   4  -1  -8    4.38    1.21
  -4  -1   8    4.42    0.86
   4   1  -7    6.16    1.28
   4  -1  -7    5.34    1.24
   4   1  -6   11.80    1.59
   4  -1  -6   10.77    1.71
  -4  -1   5   45.03    2.82
   4   1  -5   43.41    2.81
  -4   1   4  107.01    3.96
  -4  -1   4  102.99    3.92
   4   1  -4  107.28    3.91
  -4   1   3   11.31    1.23
  -4  -1   3   11.52    1.29
  -4   1   2    0.44    0.25
  -4  -1   2    0.18    0.14
   4   1  -2    0.38    0.12
   4  -1  -1  164.81    3.11
   4   1  -1  158.17    2.54
  -4   1   0   38.57    1.85
   4   1   0   39.44    1.49
   4  -1   0   40.33    1.64
   4   1   1   26.61    1.39
   4  -1   1   26.95    1.51
   4   1   2  206.81    4.42
   4  -1   2  208.77    4.62
   4   1   3  235.30    5.27
   4  -1   3  225.59    5.34
   4   1   4  476.13    8.49
   4  -1   4  458.35    8.45
   4  -1   5   63.04    3.49
  -4  -1  -5   69.16    3.13
   4  -1   6    4.44    1.05
  -4   1  -6    3.80    0.89
  -4  -1  -7    0.15    0.27
  -4   1  -7    0.31    0.35
  -4  -1  -8   27.27    2.16
  -4   1  -8   27.64    2.22
  -4  -1  -9   11.14    1.38
  -4   1  -9    9.37    1.30
  -4   1 -10    5.47    1.00
  -4  -1 -10    5.38    0.90
  -4  -1 -11    0.80    0.34
  -4   1 -11    0.59    0.32
  -4   1 -12   -0.10    0.19
  -4  -1 -12    0.20    0.22
  -4   1 -12    0.02    0.12
  -4  -1 -12    0.30    0.23
  -4   2  13    0.35    0.22
  -4  -2  12    0.05    0.20
  -4   2  12    0.00    0.21
  -4  -2  11    3.25    0.76
  -4   2  11    2.82    0.75
  -4  -2  10   -0.28    0.27
  -4   2  10    0.38    0.52
  -4  -2   9   28.41    2.25
  -4   2   9   26.27    2.16
   4  -2  -9   28.90    3.18
   4   2  -9   29.29    3.10
  -4  -2   9   30.79    2.47
  -4  -2   8   25.80    2.26
   4  -2  -8   30.48    3.13
  -4  -2   8   24.50    2.01
  -4   2   8   25.39    2.07
   4   2  -8   25.94    2.74
   4   2  -7    2.23    0.75
   4  -2  -7    3.55    1.02
   4   2  -6    1.84    0.66
  -4  -2   5    0.46    0.31
   4   2  -5    0.47    0.39
  -4  -2   4   15.22    1.51
   4   2  -4   16.57    1.53
  -4  -2   4   17.38    1.23
  -4   2   3   85.37    3.27
  -4  -2   3   81.04    3.39
  -4  -2   3   80.70    2.32
   4   2  -3   85.86    3.05
  -4  -2   2   11.27    1.23
  -4   2   2   10.26    1.07
   4  -2  -1    1.71    0.35
  -4   2   1    1.36    0.39
   4   2  -1    1.58    0.23
   4  -2   0   15.44    1.13
  -4   2   0   12.63    1.01
   4   2   0   14.14    0.84
   4  -2   0   15.21    0.68
  -4   2  -1    6.39    0.69
   4   2   1    8.38    0.78
   4  -2   1    7.67    0.83
   4   2   2   27.47    1.62
   4  -2   2   27.35    1.75
   4   2   3  192.57    4.84
   4  -2   3  171.66    4.83
   4  -2   4    1.86    0.57
   4  -2   5    4.70    1.01
   4  -2   6    0.12    0.25
  -4  -2  -7    0.69    0.35
  -4   2  -7    1.37    0.66
  -4  -2  -8    1.05    0.34
  -4   2  -8    0.35    0.27
  -4  -2  -9    7.85    1.12
  -4   2  -9    8.18    1.22
  -4  -2 -10    1.62    0.52
  -4   2 -10    1.27    0.44
  -4  -2 -11    1.14    0.37
  -4   2 -11    1.39    0.42
  -4   2 -12    0.12    0.13
  -4  -2 -12    0.09    0.12
  -4   2 -12    0.11    0.15
  -4  -2 -12    0.03    0.14
  -4   3  13    0.88    0.29
  -4   3  12   -0.19    0.21
  -4  -3  11   13.01    1.43
  -4   3  11   12.66    1.50
  -4  -3  10   53.96    3.10
  -4   3  10   51.41    3.08
  -4  -3   9   99.61    4.55
  -4   3   9   90.32    4.06
  -4  -3   9   91.64    4.06
   4  -3  -9  101.10    6.04
   4   3  -9   96.32    5.53
  -4  -3   8   23.02    2.22
  -4  -3   8   25.52    2.06
  -4   3   8   22.16    1.96
   4  -3  -8   27.63    3.09
   4   3  -8   25.51    2.72
  -4   3   7   42.98    2.60
   4  -3  -7   47.32    3.73
   4   3  -7   48.19    3.38
  -4  -3   6   44.39    3.06
   4   3  -6   44.82    3.01
  -4  -3   5  114.95    4.56
   4   3  -5  111.91    4.34
  -4  -3   5  116.38    3.79
  -4  -3   4    0.48    0.20
   4   3  -4    0.17    0.18
  -4  -3   4    0.88    0.33
  -4  -3   3  115.36    3.18
   4   3  -3  119.73    3.43
  -4  -3   3  121.24    4.28
  -4   3   2  144.18    3.90
   4   3  -2  141.88    3.01
  -4   3   1    7.16    0.82
   4  -3  -1    7.18    0.77
   4   3   0   36.67    1.24
  -4   3   0   39.62    1.70
  -4   3  -1    0.60    0.24
   4   3   1    0.42    0.20
   4  -3   1    0.58    0.25
   4  -3   2   81.01    3.13
   4  -3   3    0.63    0.35
   4  -3   4   31.21    2.34
   4  -3   5    0.84    0.44
   4  -3   6    7.40    1.42
  -4  -3  -6    8.48    1.13
   4  -3   7    0.71    0.62
  -4  -3  -7    1.24    0.50
  -4  -3  -8   23.19    1.91
  -4   3  -8   21.79    2.07
  -4  -3  -9    0.38    0.27
  -4   3  -9    0.61    0.32
  -4  -3 -10    3.68    0.75
  -4   3 -10    3.81    0.80
  -4  -3 -11    0.33    0.32
  -4  -3 -11   -0.11    0.15
  -4   3 -11    0.17    0.26
  -4   3 -12    0.12    0.17
  -4  -3 -12    0.11    0.11
  -4  -3 -12   -0.02    0.14
  -4   3 -12    0.02    0.15
  -4   4  13    0.53    0.29
  -4   4  12    0.38    0.35
  -4   4  11    0.51    0.42
  -4  -4  10    3.84    0.84
  -4  -4  10    3.89    0.81
  -4   4  10    3.75    0.88
   4   4  -9    0.66    0.48
  -4   4   9   -0.10    0.21
  -4  -4   9    1.03    0.58
  -4  -4   9    0.61    0.43
  -4  -4   8   18.53    1.78
  -4   4   8   17.07    1.73
   4  -4  -8   20.23    2.70
   4   4  -8   19.02    2.28
  -4  -4   8   17.77    2.01
  -4  -4   7    7.08    1.23
  -4   4   7    5.61    0.91
   4  -4  -7    5.19    1.29
   4   4  -7    5.98    1.22
  -4  -4   6    0.48    0.51
   4   4  -6    0.72    0.45
  -4  -4   5    3.04    0.66
  -4  -4   5    3.65    0.85
   4   4  -5    3.35    0.73
  -4  -4   4   23.78    1.69
  -4  -4   4   21.16    1.91
   4   4  -4   22.78    1.65
  -4  -4   3    4.63    0.71
  -4  -4   3    4.68    0.89
   4   4  -3    4.23    0.56
  -4  -4   2   -0.08    0.17
   4  -4  -1    1.22    0.35
   4  -4   0    0.98    0.30
  -4   4   0    1.37    0.31
   4  -4   1  210.62    4.78
   4  -4   1  245.60    4.13
   4  -4   2   58.99    2.78
   4  -4   2   67.63    2.80
   4  -4   3   87.15    3.67
   4  -4   4    0.18    0.15
   4  -4   5    0.03    0.18
   4  -4   6    8.50    1.55
  -4  -4  -6   11.15    1.27
   4  -4   7    0.85    0.63
   4  -4   7    0.60    0.48
  -4  -4  -7    1.17    0.51
  -4  -4  -8   14.38    1.54
  -4   4  -8   11.71    1.57
  -4  -4  -9    2.97    0.70
  -4   4  -9    2.83    0.76
  -4  -4 -10   12.97    1.32
  -4   4 -10   12.44    1.42
  -4  -4 -11    7.89    0.92
  -4  -4 -11    5.82    0.84
  -4   4 -11    6.70    0.91
  -4  -4 -12    0.09    0.11
  -4   4 -12    0.14    0.18
   4   4  12   -0.17    0.12
  -4  -4 -12   -0.07    0.10
  -4   4 -12    0.15    0.17
  -4   5  13   -0.10    0.18
  -4   5  12    5.28    0.91
  -4   5  11   20.11    1.86
  -4   5  10    0.08    0.35
  -4  -5  10   -0.40    0.35
  -4   5   9    5.48    1.05
  -4  -5   9    6.97    1.34
  -4   5   8    2.08    0.66
  -4  -5   8    2.88    0.79
   4  -5  -8    1.70    0.89
  -4  -5   8    2.68    0.76
   4   5  -8    2.01    0.70
  -4  -5   7    1.55    0.61
   4   5  -7    0.35    0.24
  -4   5   7    1.04    0.62
  -4  -5   7    0.22    0.24
  -4  -5   6    5.11    1.11
   4   5  -6    6.24    1.08
  -4  -5   6    5.70    1.01
  -4  -5   5   18.67    1.88
   4   5  -5   21.25    1.80
  -4  -5   5   19.70    1.77
  -4  -5   4   16.63    1.50
  -4  -5   4   15.48    1.68
   4   5  -4   17.72    1.41
  -4  -5   3   54.20    2.59
  -4  -5   3   50.72    2.95
  -4  -5   2   16.10    1.36
   4  -5  -1   19.73    1.46
   4  -5   0   22.96    1.58
   4  -5   1    0.61    0.22
   4  -5   1    0.73    0.31
   4  -5   2    5.50    0.88
   4  -5   2    6.50    0.86
   4  -5   3   44.89    2.75
   4  -5   3   46.08    2.68
   4  -5   4   29.08    2.39
   4  -5   4   31.61    2.53
   4  -5   5    4.43    1.08
   4  -5   5    5.18    1.12
   4  -5   6    3.13    1.02
  -4  -5  -6    2.86    0.65
   4  -5   6    2.74    0.93
   4  -5   7    1.35    0.81
   4  -5   7    0.77    0.50
  -4  -5  -7    2.73    0.78
  -4  -5  -8    6.93    1.05
  -4  -5  -9    2.71    0.61
  -4   5  -9    2.75    0.78
  -4  -5 -10   -0.01    0.20
  -4  -5 -10    0.35    0.29
  -4   5 -10    0.78    0.45
  -4  -5 -11    3.49    0.63
  -4  -5 -11    5.28    0.72
  -4   5 -11    3.43    0.66
  -4   5 -12   -0.04    0.12
   4   5  12   -0.20    0.14
  -4  -5 -12   -0.02    0.11
  -4   5 -12    0.07    0.13
  -4   6  13   -0.15    0.23
  -4   6  12    1.46    0.49
  -4   6  11    9.85    1.31
  -4  -6  10   18.13    1.93
  -4   6  10   20.34    2.01
  -4   6   9    2.25    0.68
  -4  -6   9    1.92    0.59
  -4  -6   8    5.03    1.11
  -4   6   8    5.70    1.03
   4  -6  -8    5.77    1.44
  -4  -6   7    5.37    1.28
  -4  -6   7    4.27    1.05
  -4   6   7    4.25    0.88
  -4  -6   6    2.28    0.65
  -4  -6   6    2.61    0.79
  -4  -6   5    0.75    0.42
  -4  -6   5   -0.08    0.15
  -4  -6   4    0.34    0.27
  -4  -6   4    0.44    0.32
  -4  -6   3   61.03    2.95
  -4  -6   3   63.10    3.41
  -4  -6   2   10.18    1.16
   4  -6  -1   92.78    3.31
   4  -6   0    6.76    0.90
   4  -6   1   22.51    1.76
   4  -6   2   72.61    3.29
   4  -6   2   82.51    3.15
   4  -6   3    0.73    0.42
   4  -6   3    0.02    0.25
   4  -6   4   40.54    2.95
   4  -6   4   41.51    2.85
   4  -6   5    0.20    0.27
   4  -6   5    0.61    0.48
   4  -6   6   34.52    3.08
   4  -6   6   31.50    3.02
  -4  -6  -6   36.36    2.27
   4  -6   7    1.04    0.70
  -4  -6  -7    1.64    0.56
   4  -6   7    2.10    0.93
  -4  -6  -8    2.58    0.67
  -4  -6  -9    1.81    0.59
  -4  -6  -9    2.75    0.63
  -4   6  -9    2.63    1.02
  -4  -6 -10    0.02    0.19
  -4  -6 -10    0.06    0.17
  -4   6 -10   -0.28    0.37
  -4  -6 -11   -0.14    0.15
  -4   6 -11   -0.04    0.16
   4   6  12    2.34    0.42
  -4  -6 -12    2.38    0.38
  -4   6 -12    1.20    0.26
  -4   7  13   -0.17    0.15
  -4   7  12    0.64    0.31
  -4  -7  11   -0.26    0.42
  -4   7  11    0.05    0.26
  -4  -7  10    0.86    0.33
  -4   7  10    1.21    0.49
  -4   7   9    1.26    0.57
  -4  -7   9    1.02    0.54
  -4   7   8    4.53    0.94
  -4  -7   8    4.73    1.12
   4  -7  -8    4.30    1.32
  -4   7   7   13.85    1.60
  -4  -7   7   13.27    1.81
  -4  -7   6    6.61    1.19
  -4  -7   6    6.49    1.23
  -4  -7   6    7.26    1.29
  -4  -7   5    1.18    0.48
  -4  -7   5    1.78    0.64
  -4  -7   4   20.74    2.08
  -4  -7   4   22.47    2.01
  -4  -7   3   40.12    2.51
  -4  -7   3   38.76    2.75
  -4  -7   2    8.89    1.17
   4  -7  -1   19.33    1.59
   4  -7   0    0.94    0.33
   4  -7   1   67.52    3.18
   4  -7   2    0.09    0.20
   4  -7   2    0.26    0.25
   4  -7   3    1.86    0.66
   4  -7   3    1.59    0.54
   4  -7   4    1.55    0.63
   4  -7   4    0.89    0.50
  -4  -7  -5   11.21    1.22
   4  -7   5    8.82    1.55
   4  -7   5    9.42    1.57
   4  -7   6    8.32    1.63
  -4  -7  -6   10.39    1.22
  -4  -7  -6   11.99    1.40
   4  -7   6   10.58    1.75
  -4  -7  -7   15.20    1.56
  -4  -7  -7   14.29    1.54
   4  -7   7   12.35    2.06
  -4  -7  -8    1.54    0.58
  -4  -7  -8    1.57    0.51
  -4  -7  -9    4.22    0.85
  -4  -7  -9    5.14    0.84
  -4   7  -9    3.35    0.78
  -4  -7 -10    0.18    0.17
  -4  -7 -10   -0.03    0.17
  -4   7 -10   -0.27    0.31
  -4   7 -11   -0.03    0.14
  -4  -7 -11    0.17    0.14
  -4   7 -11    0.18    0.20
   4   7  12    0.60    0.23
  -4  -7 -12    0.28    0.13
  -4   8  13    6.17    0.73
  -4   8  12   -0.10    0.16
  -4  -8  11    0.75    0.35
  -4   8  11    1.19    0.50
  -4  -8  10    4.27    0.92
  -4   8  10    5.31    1.00
  -4   8   9    2.58    0.67
  -4  -8   9    1.97    0.67
  -4  -8   8   10.09    1.67
  -4   8   8    7.33    1.19
  -4   8   7    0.79    0.40
  -4  -8   7    0.65    0.51
  -4  -8   6   41.42    3.13
  -4  -8   6   45.10    3.20
  -4  -8   6   45.21    3.29
  -4   8   6   40.35    2.63
  -4  -8   6   45.86    3.26
  -4  -8   5    2.58    0.73
  -4  -8   5    2.38    0.75
  -4  -8   4   28.23    2.36
  -4  -8   4   24.52    2.29
  -4  -8   3    0.97    0.47
  -4  -8   2   27.32    2.18
   4  -8  -1   17.58    1.61
   4  -8   0    8.19    1.11
   4  -8   1   14.67    1.57
   4  -8   2   98.78    4.18
   4  -8   3    7.59    1.29
   4  -8   3    9.43    1.33
   4  -8   4    0.35    0.36
   4  -8   4    0.64    0.36
   4  -8   5    1.93    0.79
  -4  -8  -5    2.19    0.58
   4  -8   6    0.12    0.32
  -4  -8  -6    0.32    0.24
   4  -8   6    0.28    0.33
  -4  -8  -7    0.79    0.39
  -4  -8  -8    0.20    0.28
  -4  -8  -9    7.40    1.01
  -4   8  -9    3.33    0.81
  -4  -8 -10   -0.18    0.19
  -4   8 -10    0.23    0.22
  -4   8 -11    0.40    0.18
  -4  -8 -11    0.21    0.12
  -4  -8 -12   -0.10    0.09
  -4   9  12    0.23    0.23
  -4  -9  11    0.12    0.29
  -4   9  11   -0.02    0.20
  -4  -9  10    2.36    0.67
  -4   9  10    2.63    0.65
  -4   9   9    0.21    0.24
  -4  -9   9    0.40    0.26
  -4   9   8    4.33    0.90
  -4  -9   8    4.04    0.99
  -4   9   7    3.18    0.79
  -4  -9   7    3.61    0.95
  -4   9   6    5.63    1.00
  -4  -9   6    4.07    1.03
  -4  -9   6    4.95    1.10
  -4  -9   6    4.25    1.01
  -4  -9   6    4.66    1.07
  -4  -9   5   11.43    1.65
  -4  -9   5   11.25    1.60
  -4  -9   5   11.33    1.61
  -4  -9   4    4.65    1.00
  -4  -9   4    4.23    1.01
  -4  -9   3   12.23    1.58
  -4  -9   2    7.73    1.24
   4  -9  -1    5.49    0.93
   4  -9   0    1.07    0.40
   4  -9   1   22.69    2.02
   4  -9   2    1.94    0.61
   4  -9   3   20.78    2.18
  -4  -9  -4   12.96    1.31
   4  -9   4   10.85    1.67
   4  -9   4   12.78    1.77
  -4  -9  -5   20.26    1.70
   4  -9   5   19.89    2.38
   4  -9   5   22.83    2.53
   4  -9   6    7.36    1.58
  -4  -9  -6    7.04    1.05
   4  -9   6    5.46    1.36
  -4  -9  -7    0.76    0.40
  -4  -9  -8    0.43    0.35
  -4  -9  -9    0.85    0.36
  -4   9  -9    0.93    0.43
  -4  -9 -10    4.07    0.66
  -4   9 -10    2.59    0.56
  -4  -9 -11    1.29    0.31
  -4   9 -11    0.72    0.24
  -4  10  12    0.46    0.26
  -4 -10  11    2.22    0.55
  -4  10  11    2.97    0.67
  -4 -10  10    0.30    0.35
  -4  10  10   -0.16    0.19
  -4 -10   9    5.43    1.07
  -4  10   9    6.60    1.15
  -4  10   8    0.06    0.32
  -4 -10   8   -0.13    0.48
  -4  10   7    3.94    0.82
  -4 -10   7    4.06    1.06
  -4 -10   6    1.63    0.71
  -4 -10   6    1.48    0.58
  -4 -10   5   27.42    2.66
  -4 -10   5   28.61    2.53
  -4 -10   5   23.58    2.37
  -4 -10   4    0.28    0.51
  -4 -10   4    0.00    0.18
  -4 -10   4    0.42    0.52
  -4 -10   3    1.54    0.57
  -4 -10   2    5.10    1.11
   4 -10  -1   69.06    3.42
   4 -10   0   21.43    1.97
   4 -10   1    3.31    0.82
   4 -10   2    5.57    1.07
  -4 -10  -3   -0.12    0.20
   4 -10   3    0.53    0.42
   4 -10   4   -0.03    0.23
  -4 -10  -4   -0.22    0.28
  -4 -10  -5    6.26    0.99
   4 -10   5    4.46    1.17
  -4 -10  -6    0.28    0.24
  -4 -10  -7    0.48    0.39
  -4 -10  -8    0.68    0.24
  -4 -10  -8    0.64    0.30
  -4 -10  -9    1.97    0.51
  -4  10  -9    0.98    0.41
  -4 -10 -10    0.66    0.29
  -4  10 -10    0.16    0.16
  -4 -10 -11    0.49    0.19
  -4  11  12   -0.01    0.16
  -4 -11  11    1.00    0.35
  -4  11  11    1.78    0.49
  -4  11  10    0.01    0.32
  -4 -11  10    0.07    0.26
  -4 -11   9    2.20    0.65
  -4  11   9    4.02    0.86
  -4 -11   8   -0.01    0.27
  -4  11   8   -0.16    0.38
  -4 -11   7    2.09    0.78
  -4  11   7    1.28    0.42
  -4 -11   6   17.61    2.27
  -4 -11   6   17.76    2.05
  -4 -11   5   21.00    2.19
  -4 -11   5   20.72    1.46
  -4 -11   5   21.34    2.40
  -4 -11   4   28.38    2.73
  -4 -11   4   26.08    2.53
  -4 -11   4   29.85    2.56
  -4 -11   4   26.67    1.65
  -4 -11   3    0.54    0.39
  -4 -11   3    0.64    0.45
  -4 -11   3    0.55    0.25
  -4 -11   3    0.05    0.20
  -4 -11   2    1.19    0.37
   4 -11  -2    1.03    0.44
   4 -11  -1    2.26    0.65
   4 -11   0    0.14    0.19
  -4 -11  -1    0.64    0.25
   4 -11   1    0.61    0.37
  -4 -11  -1   -0.16    0.14
  -4 -11  -2   25.25    1.85
  -4 -11  -2   24.87    1.93
   4 -11   2   28.01    2.47
  -4 -11  -3    2.82    0.68
   4 -11   3    4.01    1.04
   4 -11   4    1.42    0.57
  -4 -11  -4    1.61    0.49
  -4 -11  -5    0.10    0.26
  -4 -11  -6    0.14    0.18
   4 -11   7    1.07    0.55
  -4 -11  -7    0.31    0.22
  -4 -11  -7    0.38    0.38
  -4 -11  -8    0.02    0.24
  -4 -11  -9   -0.09    0.26
  -4  11  -9    0.15    0.18
  -4 -11 -10   -0.04    0.12
   4  11  11    0.09    0.11
  -4 -11 -11    0.14    0.10
  -4 -12  11    0.23    0.21
  -4  12  11    0.05    0.14
  -4 -12  10    0.57    0.37
  -4  12  10    1.11    0.38
  -4 -12   9    8.01    1.26
  -4  12   9   11.02    1.36
  -4 -12   8    6.04    1.14
  -4  12   8    8.70    1.25
  -4 -12   7   27.20    2.49
  -4 -12   6    1.44    0.63
  -4 -12   5   45.05    3.62
  -4 -12   5   52.11    3.43
  -4 -12   5   49.28    2.30
  -4 -12   4   30.42    1.82
  -4 -12   4   32.57    3.00
  -4 -12   3    0.07    0.20
  -4 -12   3    0.18    0.27
  -4 -12   3    0.54    0.26
  -4 -12   2    5.08    0.98
  -4 -12   2    6.08    0.83
   4 -12  -2    6.14    1.12
  -4 -12   1   12.41    1.24
   4 -12  -1   11.31    1.52
  -4 -12   0    4.36    0.75
   4 -12   0    4.41    0.98
   4 -12   1   21.62    2.21
  -4 -12  -1   18.55    1.61
  -4 -12  -1   17.75    1.69
   4 -12   2    2.46    0.78
  -4 -12  -2    1.88    0.49
  -4 -12  -2    2.70    0.65
  -4 -12  -3   -0.01    0.29
  -4 -12  -3   -0.11    0.20
   4 -12   3    0.01    0.36
   4 -12   4    0.50    0.20
  -4 -12  -4    0.90    0.34
  -4 -12  -4    0.45    0.30
  -4 -12  -5    4.45    0.83
  -4 -12  -5    3.17    0.81
  -4 -12  -6    0.07    0.12
  -4 -12  -6   -0.06    0.18
   4 -12   7    0.38    0.39
  -4 -12  -7   -0.18    0.17
  -4 -12  -7    0.13    0.28
  -4 -12  -8    0.16    0.23
  -4 -12  -9    0.18    0.21
  -4 -12 -10    0.14    0.13
  -4 -13  11    0.07    0.15
  -4 -13  10    0.50    0.22
  -4  13  10    1.01    0.37
  -4 -13   9    2.13    0.52
  -4 -13   8    0.94    0.50
  -4 -13   7   -0.33    0.28
  -4 -13   6    1.41    0.60
  -4 -13   6    2.17    0.49
  -4 -13   5   -0.05    0.39
  -4 -13   5    0.37    0.16
  -4 -13   4    4.48    1.18
  -4 -13   4    6.79    1.23
  -4 -13   4    6.38    0.85
   4 -13  -3    0.62    0.34
  -4 -13   3    1.55    0.57
  -4 -13   3    1.14    0.36
  -4 -13   2    0.98    0.38
   4 -13  -2    1.22    0.54
   4 -13  -1   12.17    1.61
  -4 -13   1   13.32    1.30
  -4 -13   0    8.11    1.06
   4 -13   0    8.73    1.42
   4 -13   1    2.82    0.86
  -4 -13  -1    2.61    0.61
  -4 -13  -2   43.33    2.53
  -4 -13  -2   33.24    2.41
   4 -13   2   40.33    3.23
  -4 -13  -3    0.53    0.36
  -4 -13  -3    0.51    0.29
  -4 -13  -4   -0.05    0.18
  -4 -13  -4    0.17    0.23
  -4 -13  -5    2.07    0.55
  -4 -13  -5    1.93    0.65
  -4 -13  -6    5.72    0.89
  -4 -13  -6    6.93    1.06
   4 -13   7   20.72    1.96
  -4 -13  -7   18.63    1.43
  -4 -13  -7   22.02    1.77
  -4 -13  -8    9.79    1.07
  -4 -13  -9    3.08    0.55
  -4 -13 -10    1.17    0.28
  -4 -14  10   -0.08    0.21
  -4 -14   9    0.43    0.32
  -4 -14   8    1.59    0.61
  -4 -14   7    0.13    0.39
  -4 -14   6   -0.21    0.33
  -4 -14   6    0.26    0.16
  -4 -14   5    0.63    0.36
  -4 -14   5    0.60    0.29
  -4 -14   4    0.49    0.27
  -4 -14   4    0.83    0.32
  -4 -14   3    5.52    1.15
  -4 -14   3    6.22    0.88
  -4 -14   2    0.11    0.10
   4 -14  -2   -0.03    0.14
   4 -14  -1    0.26    0.26
  -4 -14   1    0.42    0.23
   4 -14   0   18.33    2.15
  -4 -14   0   19.50    1.65
  -4 -14  -1   49.60    2.67
   4 -14   1   43.53    3.30
  -4 -14  -2    0.77    0.42
  -4 -14  -2    1.13    0.54
  -4 -14  -3    9.10    1.19
  -4 -14  -3    6.89    1.16
  -4 -14  -4    0.36    0.29
  -4 -14  -4    0.78    0.45
  -4 -14  -5    0.85    0.36
  -4 -14  -5    0.59    0.39
  -4 -14  -6   12.53    1.25
  -4 -14  -6   12.88    1.38
   4 -14   7   26.78    2.17
  -4 -14  -7   22.42    1.43
  -4 -14  -7   24.70    1.80
   4 -14   8   29.87    1.92
  -4 -14  -8   30.38    1.80
  -4 -14  -9   14.44    1.08
  -4 -15  10    0.70    0.23
  -4 -15   9    0.85    0.38
  -4 -15   8    0.12    0.29
  -4 -15   7    0.42    0.44
  -4 -15   6    3.50    0.89
  -4 -15   6    3.87    0.63
  -4 -15   5   -0.02    0.43
  -4 -15   5   -0.16    0.26
  -4 -15   4    2.95    0.81
  -4 -15   4    3.42    0.63
  -4 -15   3    1.31    0.53
  -4 -15   3    1.55    0.44
  -4 -15   2   15.79    1.41
  -4 -15   1  119.01    3.91
  -4 -15   0   49.20    2.61
  -4 -15  -1   57.03    2.86
  -4 -15  -2    2.76    0.68
  -4 -15  -3    4.76    0.86
  -4 -15  -4    0.94    0.41
  -4 -15  -4    0.47    0.38
  -4 -15  -5    0.35    0.24
  -4 -15  -5   -0.22    0.43
  -4 -15  -6    0.20    0.15
  -4 -15  -6   -0.18    0.19
   4 -15   7    0.46    0.35
  -4 -15  -7   -0.37    0.29
   4 -15   8    4.60    0.68
  -4 -15  -8    6.35    0.78
  -4 -16   9    0.70    0.33
  -4 -16   8   -0.34    0.23
  -4 -16   7    1.95    0.60
  -4 -16   7    2.44    0.43
  -4 -16   6    4.21    0.91
  -4 -16   6    5.37    0.72
  -4 -16   5    2.20    0.66
  -4 -16   5    2.11    0.47
  -4 -16   4    4.51    0.93
  -4 -16   4    4.30    0.70
  -4 -16   3    3.65    0.92
  -4 -16   3    3.45    0.66
  -4 -16   2    1.96    0.50
  -4 -16   1   24.25    1.78
  -4 -16   0    1.09    0.39
  -4 -16  -1    0.41    0.30
  -4 -16  -2    0.11    0.17
  -4 -16  -3    0.63    0.33
  -4 -16  -4    1.81    0.50
  -4 -16  -5    0.09    0.18
  -4 -16  -6    1.01    0.31
  -4 -16  -6    0.61    0.31
   4 -16   6    0.92    0.46
   4 -16   7    0.37    0.27
   4 -16   8    0.20    0.19
  -4 -17   9    0.34    0.15
  -4 -17   8    0.53    0.29
  -4 -17   7    1.34    0.44
  -4 -17   6   -0.25    0.22
  -4 -17   6    0.10    0.10
  -4 -17   5    0.63    0.42
  -4 -17   5    0.01    0.12
  -4 -17   4    0.48    0.38
  -4 -17   4    0.50    0.24
  -4 -17   3    2.81    0.67
  -4 -17   3    3.30    0.62
  -4 -17   2    0.86    0.36
  -4 -17   1    0.63    0.23
  -4 -17   0    9.06    1.08
  -4 -17  -1    9.42    1.09
  -4 -17  -2   13.87    1.32
  -4 -17  -3    3.48    0.67
  -4 -17  -4    0.14    0.16
   4 -17   5    0.22    0.25
  -4 -17  -5    0.41    0.18
   4 -17   6    0.23    0.30
  -4 -17  -6   -0.03    0.10
   4 -17   7   -0.05    0.26
  -4 -18   8    1.16    0.33
  -4 -18   7   -0.13    0.23
  -4 -18   6   -0.12    0.23
  -4 -18   6   -0.03    0.10
  -4 -18   5   -0.36    0.25
  -4 -18   5    0.04    0.16
  -4 -18   4    1.75    0.51
  -4 -18   4    2.86    0.54
  -4 -18   3    0.57    0.26
  -4 -18   2    0.24    0.13
  -4 -18   1    0.12    0.12
  -4 -18   0    0.91    0.33
  -4 -18  -1    1.47    0.44
  -4 -18  -2    3.10    0.61
  -4 -18  -3    0.41    0.24
  -4 -18  -4    0.44    0.21
   4 -18   5    1.21    0.43
  -4 -18  -5    1.24    0.29
   4 -18   6    0.68    0.31
   4 -18   7    1.73    0.38
  -4 -19   7    0.02    0.15
  -4 -19   6    0.00    0.08
  -4 -19   6   -0.04    0.15
  -4 -19   5    0.36    0.27
  -4 -19   5    0.32    0.20
  -4 -19   4   -0.40    0.27
  -4 -19   4   -0.14    0.15
  -4 -19   3   -0.10    0.17
  -4 -19   2    0.48    0.23
  -4 -19   1    1.47    0.39
  -4 -19   0    2.31    0.50
  -4 -19  -1    0.79    0.25
  -4 -19  -2    0.00    0.11
  -4 -19  -3    0.32    0.21
   4 -19   4    1.01    0.40
  -4 -19  -4    1.05    0.29
  -4 -19  -5    4.55    0.46
   4 -19   5    3.92    0.71
   4 -19   6    0.06    0.18
  -4 -20   6   12.64    0.95
  -4 -20   5    0.63    0.21
  -4 -20   5   -0.51    0.24
  -4 -20   4    0.46    0.19
  -4 -20   3    0.09    0.11
  -4 -20   2    0.87    0.27
  -4 -20   1    1.12    0.34
  -4 -20   0    0.26    0.19
  -4 -20  -1    0.70    0.28
  -4 -20  -2    0.03    0.10
   4 -20   2    0.68    0.32
  -4 -20  -3    0.55    0.20
   4 -20   3    0.73    0.44
   4 -20   4   -0.03    0.19
  -4 -20  -4   -0.02    0.06
   4 -20   5   -0.37    0.24
  -4 -21   4    0.97    0.22
  -4 -21   3    0.41    0.14
  -4 -21   2    0.69    0.24
  -4 -21   1   -0.12    0.10
  -4 -21   0    0.11    0.12
   4 -21   0   -0.09    0.17
  -4 -21  -1    0.54    0.22
   4 -21   1    0.67    0.37
  -4 -21  -2    3.76    0.47
   4 -21   2    3.40    0.64
   4 -21   3    0.28    0.24
  -4 -21  -3    0.03    0.07
   4 -21   4    0.49    0.24
  -4 -22   3    0.43    0.15
  -4 -22   2    0.01    0.07
  -4 -22   1    0.19    0.12
  -4 -22   0    0.40    0.16
  -4 -22  -1    1.18    0.24
  -5   0  13    0.38    0.17
  -5   0  12   -0.35    0.16
  -5   0  11    2.75    0.67
  -5   0  10    0.20    0.24
  -5   0   9    3.51    0.81
  -5   0   8    0.11    0.38
  -5   0   8   -0.07    0.24
  -5   0   8    0.28    0.25
   5   0  -8   -0.61    0.65
  -5   0   7    5.16    0.82
  -5   0   7    5.27    1.02
   5   0  -7    5.37    1.27
  -5   0   7    5.11    0.96
   5   0  -6    0.31    0.48
  -5   0   5    1.46    0.69
   5   0  -5    1.10    0.50
  -5   0   4    0.06    0.25
  -5   0   3   22.74    1.90
   5   0  -3   21.02    1.20
  -5   0   2    0.18    0.19
   5   0  -2    0.10    0.15
   5   0  -1    0.61    0.22
  -5   0   1    0.74    0.45
  -5   0   0   -0.15    0.29
   5   0   0    0.19    0.13
   5   0   1   21.51    1.46
   5   0   2   -0.18    0.17
   5   0   3   99.88    3.81
   5   0   4   -0.03    0.15
   5   0   5  255.65    7.44
  -5   0  -6    0.34    0.32
  -5   0  -7   21.79    1.86
  -5   0  -8   -0.08    0.25
  -5   0  -9   27.93    2.02
  -5   0 -10   -0.35    0.27
  -5   0 -11    0.03    0.19
  -5   0 -11   -0.03    0.13
  -5   0 -12    0.03    0.11
  -5   0 -12    0.03    0.11
  -5  -1  13    0.11    0.15
  -5   1  13    0.43    0.28
  -5  -1  12   -0.15    0.22
  -5   1  12   -0.10    0.21
  -5  -1  11   -0.27    0.32
  -5   1  11   -0.05    0.23
  -5  -1  10    0.19    0.39
  -5   1  10    0.14    0.30
  -5  -1   9    0.17    0.34
  -5  -1   9    0.22    0.24
  -5   1   9    0.78    0.57
  -5   1   8    2.94    0.67
  -5  -1   8    3.97    0.89
  -5   1   8    4.48    0.94
  -5  -1   8    5.22    1.13
   5  -1  -8    3.44    1.09
   5   1  -8    5.08    1.34
   5   1  -7    1.55    0.70
  -5  -1   7    0.79    0.34
  -5  -1   7    0.82    0.29
  -5  -1   7    0.71    0.26
   5  -1  -7    0.93    0.58
  -5   1   7    0.86    0.42
   5  -1  -6    3.61    0.97
   5   1  -6    4.44    1.17
  -5  -1   5    0.74    0.34
   5   1  -5    0.33    0.28
  -5   1   4    0.35    0.27
  -5  -1   4    0.34    0.31
   5   1  -4    0.23    0.19
  -5   1   3    8.23    1.12
  -5  -1   3    6.90    1.09
  -5  -1   2   18.05    1.72
   5  -1  -2   18.71    1.19
  -5   1   2   18.76    1.63
   5  -1  -1   13.83    1.05
  -5  -1   1   12.64    1.41
  -5   1   1   12.63    1.30
   5   1  -1   15.61    0.98
  -5   1   0   16.43    1.38
   5   1   0   18.65    1.18
   5  -1   0   16.78    1.22
  -5   1  -1    0.23    0.23
   5  -1   1    0.32    0.18
   5  -1   2    0.32    0.23
   5   1   2    0.52    0.27
   5   1   3   61.08    2.96
   5  -1   3   56.06    2.93
   5   1   4   47.21    2.90
   5  -1   4   44.24    2.83
   5  -1   5   91.55    4.46
  -5  -1  -6    0.01    0.23
  -5   1  -6    0.09    0.25
  -5  -1  -7    0.96    0.46
  -5   1  -7    0.27    0.22
  -5  -1  -8   24.68    1.96
  -5   1  -8   24.89    2.04
  -5  -1  -9    0.73    0.39
  -5   1  -9    1.16    0.50
  -5  -1 -10    1.21    0.47
  -5  -1 -10    1.44    0.46
  -5   1 -10    1.75    0.48
  -5   1 -11   -0.04    0.18
  -5  -1 -11    0.06    0.15
  -5  -1 -11    0.26    0.19
  -5   1 -11   -0.04    0.16
  -5  -1 -12   -0.11    0.10
  -5   1 -12    0.23    0.15
  -5   1 -12    0.17    0.14
  -5   2  13    2.75    0.52
  -5  -2  12    0.15    0.14
  -5   2  12    0.96    0.47
  -5  -2  11    1.74    0.57
  -5   2  11    2.67    0.81
  -5  -2  10    5.66    1.05
  -5   2  10    2.40    0.75
  -5  -2   9   25.49    2.31
  -5  -2   9   24.19    2.17
  -5   2   9   25.40    2.29
  -5  -2   8    7.25    1.28
  -5  -2   8    8.27    1.25
  -5   2   8   10.32    1.54
   5   2  -8    7.88    1.57
   5  -2  -8    7.76    1.67
  -5  -2   7    3.82    0.88
  -5  -2   7    4.04    0.70
  -5  -2   7    3.61    0.80
   5   2  -7    3.35    0.94
  -5   2   7    4.14    0.93
   5  -2  -7    4.47    1.24
   5   2  -6    0.18    0.38
  -5  -2   5    0.90    0.45
   5   2  -5    0.86    0.43
  -5  -2   4   22.91    2.08
   5   2  -4   27.03    2.10
  -5   2   3    0.69    0.38
   5   2  -3    0.90    0.28
  -5  -2   3    0.59    0.31
  -5  -2   2   10.19    1.36
   5  -2  -2   10.47    0.98
  -5   2   2   10.29    1.21
  -5   2   1   36.67    2.11
   5  -2  -1   40.20    1.98
  -5   2   0    0.42    0.21
   5  -2   0    0.40    0.25
  -5   2  -1    8.93    0.93
   5  -2   1   10.03    1.10
   5  -2   2    3.46    0.71
   5   2   2    3.62    0.69
   5  -2   3    2.10    0.60
   5   2   3    2.50    0.65
   5  -2   4   -0.17    0.34
   5  -2   5    0.07    0.21
   5  -2   6    0.52    0.38
  -5  -2  -6    0.58    0.32
  -5  -2  -7    0.53    0.29
  -5   2  -7    0.50    0.30
  -5  -2  -8    7.00    1.05
  -5   2  -8    5.63    0.98
  -5  -2  -9    0.07    0.17
  -5   2  -9    0.27    0.20
  -5  -2 -10    3.59    0.76
  -5  -2 -10    3.42    0.69
  -5   2 -10    3.03    0.63
  -5  -2 -11   -0.12    0.11
  -5   2 -11   -0.27    0.28
  -5  -2 -11    0.37    0.20
  -5   2 -11   -0.12    0.16
  -5  -2 -12    1.03    0.25
  -5   2 -12    0.69    0.27
  -5   3  13   -0.12    0.12
  -5  -3  12    6.58    0.87
  -5   3  12    7.28    1.04
  -5  -3  11   10.91    1.31
  -5   3  11   10.75    1.39
  -5  -3  10   12.89    1.58
  -5  -3  10   13.11    1.55
  -5   3  10   12.64    1.56
  -5  -3   9   61.93    3.48
  -5   3   9   59.41    3.47
  -5  -3   9   62.64    3.73
  -5  -3   8  169.09    6.25
  -5  -3   8  162.23    5.56
  -5   3   8  163.10    5.66
   5  -3  -8  171.35    8.00
  -5  -3   7  157.60    5.92
  -5  -3   7  148.89    5.18
  -5   3   7  145.53    5.19
  -5  -3   7  151.69    4.40
   5  -3  -7  148.62    7.02
  -5  -3   7  161.15    6.07
  -5  -3   6   10.73    1.67
   5   3  -6   10.82    1.54
  -5  -3   5   12.23    1.65
  -5  -3   4   30.23    2.48
  -5  -3   3  237.45    6.70
  -5   3   2   66.53    2.97
   5  -3  -2   57.42    2.48
  -5  -3   2   58.85    3.25
  -5   3   1   16.91    1.40
   5  -3  -1   15.87    1.30
   5  -3   0   20.57    1.52
  -5   3   0   21.28    1.45
   5  -3   1   56.94    2.67
   5  -3   2   10.45    1.24
   5  -3   3   15.23    1.61
   5  -3   4    5.21    1.03
   5  -3   5    2.11    0.74
   5  -3   6    1.64    0.73
  -5  -3  -6    1.87    0.56
  -5  -3  -7    1.00    0.48
  -5   3  -7    0.02    0.44
  -5  -3  -8    6.14    0.94
  -5   3  -8    4.61    0.91
  -5  -3  -9    0.21    0.23
  -5  -3  -9    0.28    0.28
  -5   3  -9    0.18    0.27
  -5  -3 -10    0.36    0.27
  -5  -3 -10    0.51    0.26
  -5   3 -10    0.55    0.33
  -5  -3 -11    0.05    0.12
  -5   3 -11   -0.05    0.16
  -5  -3 -11    0.13    0.13
  -5   3 -11   -0.06    0.13
  -5   3 -12    0.36    0.20
  -5  -3 -12    1.17    0.24
  -5   4  13    0.83    0.33
  -5   4  12    9.39    1.16
  -5  -4  11   -0.39    0.29
  -5   4  11   -0.09    0.39
  -5  -4  10   -0.14    0.34
  -5  -4  10    0.34    0.25
  -5   4  10    0.18    0.42
  -5  -4   9   15.86    1.89
  -5  -4   9   15.84    1.74
  -5   4   9   15.58    1.79
  -5  -4   8   10.03    1.57
  -5  -4   8   10.37    1.42
  -5   4   8    9.47    1.40
   5  -4  -8   10.64    2.01
  -5  -4   7    0.90    0.71
  -5  -4   7    0.63    0.48
  -5  -4   7    0.85    0.38
   5  -4  -7    0.43    0.38
  -5  -4   7    0.55    0.19
  -5   4   7    0.78    0.38
  -5  -4   6   13.86    1.75
  -5   4   6   15.41    1.69
  -5  -4   6   14.19    1.94
  -5  -4   5    6.70    1.25
  -5  -4   4    1.25    0.59
  -5  -4   3   13.53    1.63
   5  -4  -2   20.70    1.59
  -5  -4   2   21.79    2.05
   5  -4  -1    1.52    0.42
  -5   4   0   16.92    1.25
   5  -4   0   14.35    1.35
   5  -4   1   23.27    1.76
   5  -4   2   21.08    1.86
   5  -4   3    2.03    0.65
   5  -4   4    0.56    0.34
   5  -4   5    5.02    1.17
  -5  -4  -5    5.02    0.90
  -5  -4  -5    4.50    0.78
   5  -4   5    5.22    1.20
   5  -4   6    2.41    0.80
   5  -4   6    2.90    1.03
  -5  -4  -6    2.37    0.58
  -5  -4  -7    4.76    0.83
  -5   4  -7    3.51    0.78
  -5  -4  -8    6.59    0.98
  -5  -4  -8    7.50    1.21
  -5   4  -8    6.02    1.09
  -5  -4  -9    5.94    0.89
  -5  -4  -9    6.29    1.04
  -5   4  -9    5.58    0.97
  -5  -4 -10    3.60    0.72
  -5  -4 -10    4.23    0.68
  -5   4 -10    3.37    0.63
  -5  -4 -11    5.28    0.68
  -5   4 -11    3.58    0.69
  -5   4 -11    4.74    0.62
  -5  -4 -12    1.52    0.26
  -5   5  13    1.59    0.41
  -5   5  12    2.06    0.55
  -5   5  11    0.51    0.27
  -5  -5  10   10.10    1.45
  -5  -5  10    9.95    1.31
  -5   5  10    9.83    1.42
  -5  -5   9    3.78    1.01
  -5  -5   9    1.98    0.62
  -5   5   9    2.88    0.79
  -5  -5   8    6.73    1.33
  -5  -5   8    7.04    1.18
  -5   5   8    6.73    1.17
   5  -5  -8    6.36    1.57
  -5  -5   7    2.41    0.77
  -5  -5   7    1.69    0.40
  -5  -5   7    2.22    0.68
  -5  -5   7    2.70    0.87
  -5   5   7    1.71    0.53
  -5  -5   6    9.44    1.49
  -5  -5   6    8.11    1.44
  -5  -5   6    7.59    1.15
  -5   5   6    7.74    1.20
  -5  -5   6    6.54    0.86
  -5  -5   6    9.06    1.46
  -5  -5   5    3.47    0.90
  -5  -5   4    0.24    0.36
  -5  -5   3   -0.12    0.31
   5  -5  -2    0.64    0.28
   5  -5  -1  112.29    3.85
   5  -5   0   39.47    2.41
   5  -5   1    1.16    0.41
   5  -5   2    1.54    0.59
   5  -5   3    6.28    1.14
   5  -5   4    4.49    1.04
   5  -5   5    9.86    1.65
  -5  -5  -5   11.13    1.21
  -5  -5  -5   11.60    1.36
   5  -5   5   12.46    1.76
   5  -5   6    2.07    0.76
  -5  -5  -6    1.13    0.41
  -5  -5  -6    1.39    0.53
   5  -5   6    1.47    0.71
  -5  -5  -7    1.32    0.48
  -5  -5  -7    1.56    0.49
  -5  -5  -8    3.93    0.85
  -5  -5  -8    3.60    0.67
  -5   5  -8    1.76    0.61
  -5  -5  -9    3.13    0.73
  -5  -5  -9    3.30    0.67
  -5   5  -9    2.53    0.66
  -5  -5 -10    9.34    1.06
  -5  -5 -10    9.06    0.95
  -5   5 -10    7.64    1.13
  -5   5 -10    7.16    0.91
  -5  -5 -11    0.91    0.28
  -5   5 -11    0.38    0.23
  -5  -5 -11    1.82    0.35
  -5   5 -11    1.43    0.33
  -5   6  13    1.10    0.32
  -5   6  12    0.25    0.14
  -5  -6  11    0.55    0.34
  -5   6  11    0.10    0.19
  -5  -6  10   15.75    1.76
  -5   6  10   18.32    1.89
  -5  -6   9   12.09    1.67
  -5   6   9   10.93    1.57
  -5  -6   8   22.59    2.35
  -5  -6   8   24.77    2.17
  -5   6   8   23.37    2.21
  -5  -6   7   -0.13    0.44
  -5  -6   7    0.01    0.17
  -5  -6   7    0.19    0.27
  -5   6   7   -0.15    0.21
  -5  -6   6    4.03    0.66
  -5  -6   6    3.88    0.99
  -5  -6   6    4.47    0.90
  -5  -6   6    4.33    1.09
  -5   6   6    5.68    1.02
  -5  -6   6    5.57    1.21
  -5  -6   5    0.09    0.42
  -5  -6   4    4.25    0.99
  -5  -6   3    0.22    0.24
   5  -6  -2    1.06    0.37
   5  -6  -1  111.91    4.05
   5  -6   0   10.60    1.33
   5  -6   1   53.91    2.98
   5  -6   2    1.50    0.56
   5  -6   3   -0.17    0.37
   5  -6   4    9.22    1.52
   5  -6   5    6.48    1.38
  -5  -6  -5    6.45    1.00
  -5  -6  -5    7.11    0.98
  -5  -6  -6    7.43    1.15
  -5  -6  -6    6.44    0.95
   5  -6   6    5.02    1.25
  -5  -6  -7    6.76    1.11
  -5  -6  -7    5.84    0.93
  -5  -6  -8    0.53    0.34
  -5  -6  -8    0.57    0.33
  -5   6  -8    0.25    0.32
  -5  -6  -9    0.13    0.17
  -5  -6  -9    0.84    0.40
  -5   6  -9    0.54    0.34
  -5  -6 -10    1.16    0.35
  -5   6 -10    0.75    0.36
  -5  -6 -10    1.08    0.34
  -5   6 -10    0.58    0.28
  -5  -6 -11    0.43    0.17
  -5  -6 -11    0.40    0.18
  -5   6 -11   -0.15    0.14
  -5   6 -11    0.28    0.18
  -5   7  12    1.13    0.36
  -5  -7  11    1.18    0.40
  -5   7  11    0.32    0.29
  -5  -7  10    2.18    0.72
  -5   7  10    2.83    0.80
  -5  -7   9    0.11    0.42
  -5   7   9   -0.27    0.39
  -5  -7   8   -0.77    0.60
  -5   7   8   -0.06    0.40
  -5  -7   7   -0.09    0.36
  -5  -7   7    0.44    0.38
  -5   7   7    0.60    0.40
  -5  -7   6    7.87    1.37
  -5   7   6    8.05    1.28
  -5  -7   6   12.32    1.17
  -5  -7   6    6.91    1.39
  -5  -7   6    7.84    1.39
  -5  -7   5    6.14    0.86
  -5  -7   5    4.22    0.95
  -5  -7   5    3.43    0.99
  -5  -7   5    3.13    0.66
  -5  -7   5    3.89    0.82
  -5  -7   4    2.50    0.85
  -5  -7   3   13.23    1.76
   5  -7  -2   17.80    1.70
   5  -7  -1   91.16    3.84
   5  -7   0    1.53    0.49
   5  -7   1    0.31    0.30
   5  -7   2   41.78    2.93
   5  -7   3    6.31    1.21
   5  -7   4    5.37    1.20
  -5  -7  -4    4.41    0.83
  -5  -7  -4    5.21    0.80
   5  -7   5    5.49    1.30
  -5  -7  -5    5.26    0.93
  -5  -7  -5    5.51    0.88
  -5  -7  -6    4.49    0.90
  -5  -7  -6    4.98    0.87
  -5  -7  -7    0.30    0.32
  -5  -7  -7    0.11    0.30
  -5  -7  -8    1.70    0.56
  -5  -7  -8    2.03    0.52
  -5   7  -9    0.25    0.25
  -5  -7  -9    1.66    0.44
  -5   7  -9    1.28    0.45
  -5  -7  -9    1.05    0.42
  -5  -7 -10    1.30    0.35
  -5   7 -10    0.88    0.37
  -5  -7 -10    1.72    0.44
  -5   7 -10    0.61    0.25
  -5   7 -11   -0.01    0.08
  -5  -7 -11   -0.23    0.15
  -5   8  12   -0.57    0.38
  -5  -8  11    0.91    0.39
  -5   8  11    0.17    0.21
  -5  -8  10    2.18    0.62
  -5   8  10    2.02    0.65
  -5  -8   9   -0.45    0.55
  -5   8   9    0.16    0.27
  -5  -8   8    5.50    1.20
  -5  -8   8    7.03    1.33
  -5   8   8    3.71    0.93
  -5  -8   7   -0.58    0.56
  -5  -8   7    0.12    0.28
  -5   8   7   -0.18    0.31
  -5  -8   6    0.39    0.39
  -5  -8   6    0.60    0.37
  -5   8   6    0.98    0.40
  -5  -8   6    0.08    0.38
  -5  -8   5    3.60    0.91
  -5  -8   5    2.41    0.75
  -5  -8   5    2.41    0.81
  -5  -8   4    0.63    0.35
  -5  -8   4    0.76    0.46
  -5  -8   4    0.46    0.38
  -5  -8   3    0.06    0.24
   5  -8  -2    3.86    0.81
   5  -8  -1   10.49    1.36
   5  -8   0   12.76    1.61
   5  -8   1   11.42    1.51
   5  -8   2   49.48    3.33
  -5  -8  -3   28.29    1.82
   5  -8   3   28.78    2.69
  -5  -8  -4   67.64    2.96
   5  -8   4   64.01    4.21
   5  -8   5   -0.10    0.30
  -5  -8  -5    0.95    0.45
  -5  -8  -5    0.79    0.35
  -5  -8  -6    0.15    0.29
  -5  -8  -6    0.57    0.25
  -5  -8  -7   12.44    1.47
  -5  -8  -7   13.96    1.42
  -5  -8  -8    0.13    0.20
  -5   8  -8    0.09    0.22
  -5  -8  -8    0.33    0.35
  -5   8  -9   -0.15    0.14
  -5  -8  -9    0.14    0.15
  -5   8 -10    1.24    0.36
  -5  -8 -10    4.09    0.60
  -5  -8 -11    0.31    0.15
  -5   9  12    1.56    0.43
  -5   9  11    1.10    0.39
  -5  -9  11    0.59    0.30
  -5  -9  10    1.00    0.45
  -5   9  10    2.47    0.65
  -5  -9   9    0.78    0.39
  -5   9   9    0.45    0.32
  -5  -9   8    3.33    0.91
  -5   9   8    3.15    0.77
  -5  -9   7   -0.34    0.40
  -5   9   7    0.12    0.23
  -5  -9   7    0.40    0.46
  -5  -9   6    3.95    1.00
  -5  -9   6    3.80    1.01
  -5   9   6    3.98    0.86
  -5  -9   6    4.38    1.06
  -5  -9   5    1.18    0.46
  -5  -9   5    0.81    0.55
  -5  -9   5    1.14    0.59
  -5  -9   4   15.40    1.91
  -5  -9   4   17.10    1.98
  -5  -9   4   14.25    1.99
  -5  -9   4   16.87    1.45
  -5  -9   3    0.76    0.58
   5  -9  -2    5.12    1.01
   5  -9  -1    7.35    1.19
   5  -9   0    0.11    0.22
   5  -9   1    8.95    1.40
  -5  -9  -2    9.38    1.07
   5  -9   2    9.76    1.50
   5  -9   3    2.44    0.83
  -5  -9  -3    1.41    0.43
   5  -9   4    2.58    0.96
  -5  -9  -4    2.67    0.65
   5  -9   5   -0.06    0.21
  -5  -9  -5    0.56    0.27
  -5  -9  -6   21.18    1.77
  -5  -9  -7   15.41    1.50
  -5  -9  -8    2.62    0.62
  -5  -9  -9   -0.10    0.18
  -5  -9  -9    0.07    0.22
  -5  -9 -10    2.14    0.40
  -5  -9 -11    0.26    0.15
  -5  10  12   -0.34    0.18
  -5 -10  11    0.31    0.25
  -5  10  11    0.37    0.24
  -5  10  10    0.13    0.22
  -5 -10  10   -0.34    0.42
  -5 -10   9    0.09    0.32
  -5  10   9    0.66    0.38
  -5 -10   8   -0.17    0.50
  -5  10   8    0.21    0.27
  -5 -10   7    0.06    0.27
  -5  10   7    0.12    0.25
  -5 -10   7    0.40    0.48
  -5 -10   6    5.39    1.15
  -5 -10   6    5.54    1.24
  -5 -10   5    4.90    1.22
  -5 -10   5    2.60    0.80
  -5 -10   5    2.62    0.81
  -5 -10   4   15.83    2.08
  -5 -10   4   16.03    1.97
  -5 -10   4   15.60    2.11
  -5 -10   3    1.69    0.71
  -5 -10   3    1.24    0.35
  -5 -10   3    1.35    0.61
   5 -10  -3    1.20    0.47
   5 -10  -2    4.47    0.98
  -5 -10   2    4.31    0.71
  -5 -10   1    4.59    0.75
   5 -10  -1    4.56    0.97
  -5 -10   0   -0.05    0.23
   5 -10   0    0.04    0.23
   5 -10   1   -0.28    0.22
  -5 -10  -1   -0.10    0.18
  -5 -10  -2    8.56    1.12
   5 -10   2   12.49    1.78
   5 -10   3    1.89    0.76
  -5 -10  -3    2.95    0.69
   5 -10   4    4.07    1.13
  -5 -10  -4    2.13    0.57
  -5 -10  -5    9.26    1.21
  -5 -10  -6    9.28    1.17
  -5 -10  -7    6.11    0.92
  -5 -10  -8    0.16    0.17
  -5 -10  -8   -0.03    0.19
  -5 -10  -9    1.20    0.37
  -5 -10 -10    0.41    0.19
  -5 -11  11    0.37    0.22
  -5  11  11    0.25    0.21
  -5 -11  10    0.03    0.26
  -5  11  10    0.20    0.23
  -5 -11   9    2.45    0.72
  -5  11   9    1.74    0.52
  -5 -11   8    9.07    1.45
  -5  11   8   11.54    1.49
  -5 -11   7    1.93    0.66
  -5 -11   6    1.65    0.60
  -5 -11   6    1.40    0.65
  -5 -11   5   74.87    4.23
  -5 -11   5   72.35    4.49
  -5 -11   5   81.16    4.66
  -5 -11   4   92.08    4.62
  -5 -11   4   82.48    4.85
  -5 -11   4   91.01    3.11
  -5 -11   3   16.54    1.91
  -5 -11   3   16.05    2.14
  -5 -11   3   18.04    1.40
   5 -11  -3   19.59    2.10
  -5 -11   2   10.83    1.13
   5 -11  -2    9.88    1.48
   5 -11  -1   15.23    1.86
  -5 -11   1   13.91    1.34
  -5 -11   0    6.55    0.93
   5 -11   0    8.07    1.42
   5 -11   1    0.71    0.48
  -5 -11  -1    0.54    0.30
  -5 -11  -1    0.04    0.25
  -5 -11  -2    0.57    0.26
  -5 -11  -2    0.53    0.27
   5 -11   2    0.52    0.40
   5 -11   3    3.16    0.94
  -5 -11  -3    2.14    0.63
  -5 -11  -4    5.22    0.93
  -5 -11  -5    0.44    0.33
  -5 -11  -6    0.11    0.24
  -5 -11  -7    0.06    0.16
  -5 -11  -7    0.10    0.18
  -5 -11  -8    0.09    0.09
  -5 -11  -8    0.06    0.19
  -5 -11  -9    0.95    0.29
  -5 -11 -10    0.73    0.23
  -5 -12  11    0.49    0.27
  -5 -12  10    0.26    0.22
  -5  12  10    0.35    0.16
  -5 -12   9    1.41    0.59
  -5  12   9    2.56    0.62
  -5 -12   8    9.54    1.43
  -5 -12   7   30.90    2.63
  -5 -12   6   11.72    1.62
  -5 -12   6   11.55    1.68
  -5 -12   5    2.05    0.77
  -5 -12   5    1.55    0.70
  -5 -12   4   37.11    2.94
  -5 -12   4   34.64    3.15
  -5 -12   4   42.54    2.14
  -5 -12   3   50.22    3.31
  -5 -12   3   52.01    2.42
   5 -12  -3   49.03    3.41
  -5 -12   3   43.63    3.50
  -5 -12   2   50.82    2.46
   5 -12  -2   49.26    3.40
   5 -12  -1   19.37    2.19
  -5 -12   1   18.31    1.55
  -5 -12   0    0.70    0.31
   5 -12   0    0.69    0.47
   5 -12   1    0.91    0.50
  -5 -12  -1    0.83    0.38
  -5 -12  -1    0.59    0.35
  -5 -12  -2    1.89    0.55
  -5 -12  -2    1.64    0.68
   5 -12   2    3.22    0.96
  -5 -12  -3    0.39    0.50
  -5 -12  -3    0.94    0.56
  -5 -12  -4    4.31    0.84
  -5 -12  -4    4.02    0.85
  -5 -12  -5    1.64    0.52
  -5 -12  -5    2.61    0.66
  -5 -12  -6    4.23    0.81
  -5 -12  -6    5.74    0.93
  -5 -12  -7    0.74    0.29
  -5 -12  -7    0.78    0.36
  -5 -12  -8   -0.18    0.13
  -5 -12  -8    0.05    0.15
  -5 -12  -9    0.34    0.25
  -5 -12 -10    1.03    0.24
  -5 -13  10   -0.08    0.15
  -5 -13   9    0.00    0.20
  -5 -13   8   -0.14    0.24
  -5 -13   7    0.29    0.26
  -5 -13   6    1.89    0.73
  -5 -13   6    1.75    0.62
  -5 -13   5    3.07    0.83
  -5 -13   5    1.91    0.75
  -5 -13   5    2.81    0.54
  -5 -13   4   14.68    1.83
  -5 -13   4   15.23    1.31
  -5 -13   3    6.15    1.13
  -5 -13   3    8.02    0.96
  -5 -13   2    0.56    0.32
  -5 -13   1    5.72    0.86
   5 -13  -1    5.37    1.17
  -5 -13   0    2.11    0.64
   5 -13   0    2.50    0.81
  -5 -13  -1    9.27    1.18
  -5 -13  -2    7.19    1.07
  -5 -13  -2    4.57    0.99
  -5 -13  -3    2.58    0.65
  -5 -13  -3    1.52    0.55
  -5 -13  -4   -0.14    0.21
  -5 -13  -4   -0.33    0.35
  -5 -13  -5    0.55    0.30
  -5 -13  -5    0.31    0.30
  -5 -13  -6    0.66    0.36
  -5 -13  -6    0.81    0.42
   5 -13   7    1.12    0.42
  -5 -13  -7    0.92    0.30
  -5 -13  -7    1.29    0.41
  -5 -13  -8    3.17    0.56
  -5 -13  -9   20.13    1.19
  -5 -14  10    0.86    0.28
  -5 -14   9    1.14    0.46
  -5 -14   8   -0.20    0.38
  -5 -14   7    0.13    0.26
  -5 -14   6   -0.35    0.40
  -5 -14   5    0.03    0.34
  -5 -14   5    0.13    0.10
  -5 -14   5    0.68    0.35
  -5 -14   4    6.76    1.24
  -5 -14   4    6.35    0.84
  -5 -14   3    1.03    0.52
  -5 -14   3    1.18    0.37
  -5 -14   2    7.32    0.95
  -5 -14   1    4.56    0.78
  -5 -14   0    0.51    0.33
  -5 -14  -1    0.25    0.27
  -5 -14  -2    8.55    1.16
  -5 -14  -3    0.41    0.30
  -5 -14  -3   -0.15    0.27
  -5 -14  -4    1.32    0.50
  -5 -14  -4    0.68    0.35
  -5 -14  -5    0.61    0.33
  -5 -14  -5    0.99    0.49
  -5 -14  -6    0.26    0.18
  -5 -14  -6    0.26    0.26
  -5 -14  -7    3.91    0.56
   5 -14   7    3.48    0.69
  -5 -14  -7    4.30    0.71
  -5 -14  -8    3.12    0.52
  -5 -15  10    4.94    0.61
  -5 -15   9    0.18    0.22
  -5 -15   8    2.46    0.62
  -5 -15   7    0.91    0.39
  -5 -15   6    1.43    0.53
  -5 -15   5   -0.35    0.35
  -5 -15   5    0.48    0.33
  -5 -15   4    0.25    0.30
  -5 -15   4    0.37    0.24
  -5 -15   3    0.01    0.30
  -5 -15   3    0.09    0.19
  -5 -15   2    3.05    0.63
  -5 -15   1   15.99    1.47
  -5 -15   0  116.42    4.00
  -5 -15  -1   37.68    2.33
  -5 -15  -2   12.70    1.38
  -5 -15  -3    2.97    0.67
  -5 -15  -4    1.03    0.38
  -5 -15  -5    2.73    0.57
  -5 -15  -5    2.75    0.65
   5 -15   6    0.11    0.29
  -5 -15  -6   -0.01    0.13
  -5 -15  -6    0.21    0.23
   5 -15   7    0.14    0.21
  -5 -15  -7    0.36    0.17
  -5 -15  -7   -0.01    0.16
  -5 -16   9    0.56    0.26
  -5 -16   8    0.92    0.33
  -5 -16   7    0.42    0.26
  -5 -16   6   11.02    1.33
  -5 -16   6   12.40    0.97
  -5 -16   5    1.16    0.41
  -5 -16   5    2.09    0.43
  -5 -16   4    0.24    0.19
  -5 -16   4    0.03    0.15
  -5 -16   3    0.22    0.24
  -5 -16   2    0.46    0.24
  -5 -16   1    0.01    0.15
  -5 -16   0    8.24    1.03
  -5 -16  -1    1.15    0.40
  -5 -16  -2    4.63    0.80
  -5 -16  -3    0.28    0.32
  -5 -16  -4    0.47    0.28
  -5 -16  -5    0.42    0.25
   5 -16   6   -0.14    0.17
  -5 -16  -6    0.00    0.10
   5 -16   7    1.66    0.41
  -5 -17   8   -0.12    0.19
  -5 -17   7   -0.36    0.25
  -5 -17   6    1.74    0.34
  -5 -17   6    1.51    0.46
  -5 -17   5    2.62    0.47
  -5 -17   5    2.72    0.61
  -5 -17   4    4.03    0.85
  -5 -17   4    3.37    0.73
  -5 -17   4    4.06    0.62
  -5 -17   3    0.50    0.24
  -5 -17   2    1.39    0.39
  -5 -17   1    3.01    0.63
  -5 -17   0    0.95    0.36
  -5 -17  -1    0.50    0.25
  -5 -17  -2    0.26    0.23
  -5 -17  -3    0.05    0.19
  -5 -17  -4    0.89    0.28
   5 -17   5   -0.30    0.27
  -5 -17  -5   -0.02    0.09
  -5 -17  -6    3.41    0.42
   5 -17   6    3.72    0.66
  -5 -18   7    0.19    0.19
  -5 -18   6    1.13    0.38
  -5 -18   6    1.31    0.25
  -5 -18   5    3.42    0.49
  -5 -18   5    2.54    0.59
  -5 -18   4    0.06    0.23
  -5 -18   4   -0.07    0.11
  -5 -18   3    0.26    0.16
  -5 -18   2    3.77    0.61
  -5 -18   1    0.33    0.19
  -5 -18   0    0.58    0.22
  -5 -18  -1    4.95    0.73
  -5 -18  -2    1.73    0.43
  -5 -18  -3    0.22    0.17
  -5 -18  -4    0.05    0.12
   5 -18   5    0.37    0.25
  -5 -18  -5    0.14    0.09
   5 -18   6    0.99    0.32
  -5 -19   6    0.52    0.19
  -5 -19   5    0.28    0.12
  -5 -19   5    0.31    0.15
  -5 -19   4    0.45    0.19
  -5 -19   3    0.20    0.16
  -5 -19   3    0.04    0.30
  -5 -19   2    2.44    0.45
  -5 -19   1    2.50    0.47
  -5 -19   0    0.22    0.17
  -5 -19  -1    0.12    0.18
  -5 -19  -2    0.43    0.19
  -5 -19  -3    0.06    0.09
   5 -19   4    0.30    0.24
  -5 -19  -4    0.21    0.11
   5 -19   5    1.31    0.32
  -5 -20   4    0.04    0.07
  -5 -20   3    0.00    0.10
  -5 -20   2    1.95    0.51
  -5 -20   2    3.59    0.51
  -5 -20   1    1.23    0.32
  -5 -20   0    0.75    0.23
  -5 -20  -1    2.55    0.43
  -5 -20  -2    1.04    0.30
   5 -20   2    0.03    0.18
   5 -20   3    0.19    0.24
  -5 -20  -3    0.31    0.15
   5 -20   4    0.57    0.24
  -5 -21   3    1.70    0.29
  -5 -21   2    0.03    0.06
  -5 -21   1    0.04    0.08
  -5 -21   0   -0.02    0.08
   5 -21   0    0.31    0.23
  -5 -21  -1    0.00    0.06
   5 -21   1    0.43    0.23
   5 -21   2    0.37    0.22
  -5 -21  -2    0.16    0.10
  -6   0  12    9.08    1.07
  -6   0  11    0.03    0.22
  -6   0  10    1.60    0.67
  -6   0   9    0.38    0.24
  -6   0   9    0.13    0.40
  -6   0   8    0.18    0.29
  -6   0   8   -0.13    0.25
  -6   0   7    0.10    0.37
  -6   0   7    0.11    0.17
  -6   0   6    2.22    0.53
  -6   0   6    2.42    0.60
  -6   0   6    2.74    0.88
  -6   0   6    1.85    0.62
   6   0  -6    3.88    1.11
  -6   0   5    0.22    0.35
   6   0  -5   -0.28    0.22
  -6   0   4    0.41    0.53
  -6   0   3    0.09    0.29
  -6   0   2    0.77    0.38
  -6   0   1   -0.22    0.33
  -6   0   0    2.38    0.66
   6   0   1    0.18    0.22
  -6   0  -1   -0.10    0.20
   6   0   2    0.32    0.17
   6   0   3    0.15    0.18
   6   0   4   10.82    1.50
  -6   0  -4   11.02    1.35
  -6   0  -5    0.13    0.22
  -6   0  -6  147.60    5.47
  -6   0  -7    0.44    0.55
  -6   0  -7    2.02    0.58
  -6   0  -8   18.24    1.98
  -6   0  -8   16.25    1.46
  -6   0  -9    0.15    0.23
  -6   0  -9   -0.12    0.19
  -6   0 -10    0.05    0.16
  -6   0 -10    0.30    0.16
  -6   0 -11    0.11    0.16
  -6   0 -11   -0.13    0.13
  -6   1  13    8.11    0.81
  -6  -1  12    5.35    0.81
  -6   1  12    5.47    0.84
  -6  -1  11   -0.09    0.25
  -6   1  11    0.41    0.40
  -6  -1  10    1.12    0.54
  -6   1  10    0.94    0.38
  -6  -1   9    5.06    0.78
  -6   1   9    4.75    0.78
  -6  -1   9    4.88    1.02
  -6   1   9    5.28    1.07
  -6  -1   8    0.40    0.33
  -6   1   8    0.31    0.39
  -6  -1   8    0.77    0.55
  -6   1   8    0.19    0.31
  -6  -1   7    4.95    1.14
  -6  -1   7    4.16    0.78
  -6   1   7    3.77    0.90
  -6  -1   7    3.15    0.82
  -6   1   7    4.08    1.02
   6  -1  -7    3.52    1.06
  -6  -1   6    6.16    1.18
  -6  -1   6    6.45    0.95
  -6   1   6    7.07    1.28
  -6  -1   6    6.27    0.97
  -6  -1   6    4.71    0.94
  -6  -1   6    6.19    1.25
   6  -1  -6    7.20    1.51
  -6  -1   5   17.47    2.09
  -6  -1   4    0.70    0.41
  -6   1   4    1.26    0.60
  -6  -1   3    1.21    0.67
  -6   1   3    1.74    0.60
  -6   1   2   15.91    1.68
  -6  -1   2   15.53    1.79
  -6   1   1    2.91    0.69
  -6  -1   1    2.94    0.76
   6  -1  -1    2.91    0.54
  -6  -1   0    0.02    0.22
  -6   1   0    0.08    0.23
   6  -1   0    0.00    0.16
  -6   1  -1   22.41    1.81
   6  -1   1   22.43    1.77
   6   1   2   33.23    2.22
   6  -1   2   31.85    2.25
   6   1   3    0.13    0.13
   6  -1   3    0.02    0.18
   6  -1   4   79.36    4.09
  -6  -1  -4   74.69    3.51
  -6   1  -4   83.56    3.73
   6  -1   5   12.59    1.78
  -6  -1  -5   12.87    1.56
  -6   1  -5   14.08    1.65
  -6  -1  -6  208.71    6.47
  -6   1  -6  234.16    6.82
  -6  -1  -7    0.16    0.33
  -6   1  -7    0.63    0.51
  -6  -1  -7    0.39    0.32
  -6  -1  -8    3.18    0.85
  -6  -1  -8    2.70    0.57
  -6   1  -8    3.30    0.68
  -6   1  -8    2.48    0.74
  -6  -1  -9    2.06    0.60
  -6   1  -9    2.37    0.68
  -6  -1  -9    1.64    0.46
  -6   1  -9    1.80    0.49
  -6  -1 -10    0.39    0.27
  -6   1 -10    0.73    0.32
  -6  -1 -10    0.78    0.31
  -6   1 -10    0.18    0.20
  -6  -1 -11   -0.03    0.16
  -6   1 -11   -0.11    0.13
  -6  -1 -11   -0.30    0.17
  -6   2  13    2.73    0.47
  -6  -2  12    3.22    0.59
  -6   2  12    2.98    0.63
  -6  -2  11    3.61    0.73
  -6   2  11    4.44    0.93
  -6  -2  10   -0.13    0.27
  -6   2  10    0.68    0.45
  -6   2   9    1.26    0.48
  -6  -2   9    0.83    0.46
  -6   2   9    0.75    0.58
  -6  -2   8    5.91    1.20
  -6  -2   8    6.11    0.90
  -6   2   8    9.28    1.24
  -6  -2   8    7.10    1.24
  -6   2   8    6.95    1.40
  -6  -2   7   33.80    2.86
  -6  -2   7   29.28    2.05
  -6  -2   7   29.40    2.44
  -6   2   7   29.18    2.56
   6  -2  -7   31.69    3.36
  -6  -2   6   34.08    2.73
  -6  -2   6   33.02    2.14
  -6  -2   6   31.48    2.48
  -6   2   6   33.64    2.67
  -6  -2   6   34.69    2.33
   6  -2  -6   35.48    3.35
  -6  -2   6   36.41    2.98
  -6  -2   5    0.28    0.32
  -6  -2   5    0.15    0.17
  -6  -2   5    0.46    0.25
  -6  -2   5    0.57    0.36
  -6  -2   5    0.09    0.20
  -6   2   5    0.90    0.43
  -6  -2   5    0.53    0.48
  -6  -2   4    7.51    1.33
  -6   2   3    4.58    0.92
  -6  -2   3    3.79    0.91
   6  -2  -2   61.54    2.74
  -6   2   2   60.49    3.22
  -6  -2   2   59.59    3.60
  -6   2   1   95.66    3.82
  -6  -2   1   95.44    4.39
   6  -2  -1   96.47    3.37
  -6   2   0   29.41    2.01
   6  -2   0   31.84    2.09
   6  -2   1    8.16    1.12
   6  -2   2   17.37    1.71
   6  -2   3    2.37    0.70
   6  -2   4   16.45    1.89
  -6  -2  -4   19.76    1.76
  -6   2  -4   20.69    1.85
  -6   2  -5    3.06    0.82
  -6  -2  -5    2.49    0.70
   6  -2   5    2.83    0.91
   6  -2   6   36.77    3.34
  -6  -2  -6   41.66    2.81
  -6  -2  -6   37.18    2.23
  -6   2  -6   41.68    2.94
  -6   2  -7    1.29    0.58
  -6  -2  -7    1.77    0.51
  -6  -2  -7    1.94    0.62
  -6  -2  -8    3.20    0.80
  -6   2  -8    2.72    0.80
  -6  -2  -8    2.19    0.53
  -6  -2  -9    0.08    0.16
  -6   2  -9    0.35    0.35
  -6  -2  -9    0.36    0.17
  -6   2  -9   -0.03    0.16
  -6  -2 -10    0.35    0.23
  -6  -2 -10    0.57    0.26
  -6   2 -10    0.18    0.15
  -6   2 -10    0.13    0.15
  -6  -2 -11    0.00    0.12
  -6   2 -11   -0.05    0.09
  -6  -2 -11   -0.09    0.10
  -6   3  13    0.87    0.29
  -6  -3  12    0.06    0.12
  -6   3  12    0.22    0.25
  -6  -3  11    9.54    1.19
  -6   3  11    9.27    1.25
  -6  -3  10    5.87    1.14
  -6   3  10    0.09    0.40
  -6  -3   9   12.86    1.68
  -6   3   9   12.69    1.28
  -6  -3   9   12.99    1.62
  -6   3   9   11.70    1.63
  -6  -3   8   77.49    4.32
  -6  -3   8   73.37    3.07
  -6  -3   8   75.24    3.96
  -6   3   8   70.81    4.01
  -6  -3   7   81.50    4.43
  -6  -3   7   81.82    3.40
  -6  -3   7   84.09    4.10
  -6   3   7   74.09    4.08
   6  -3  -7   83.20    5.54
  -6  -3   7   81.66    4.69
  -6  -3   6    4.77    1.19
  -6  -3   6    5.02    1.10
  -6  -3   6    5.94    0.91
  -6  -3   6    4.74    0.87
  -6  -3   6    4.51    0.92
  -6   3   6    3.98    0.95
  -6  -3   6    5.24    1.19
  -6  -3   5   13.94    1.72
  -6  -3   5   12.52    1.30
  -6  -3   5   12.25    1.50
  -6   3   5   14.25    1.66
  -6  -3   5   12.51    1.35
  -6  -3   5   16.39    2.00
  -6  -3   4   45.94    3.35
   6  -3  -4   46.02    2.51
  -6  -3   3    5.95    1.20
   6  -3  -3    5.19    0.80
   6  -3  -2    1.27    0.43
  -6   3   2    2.29    0.69
  -6  -3   2    0.67    0.46
   6  -3  -1   39.64    2.33
  -6   3   1   40.95    2.43
  -6  -3   1   40.44    2.97
   6  -3   0   31.69    2.12
   6  -3   1    2.76    0.65
   6  -3   2   11.76    1.47
   6  -3   3    1.01    0.44
   6  -3   4    6.96    1.28
  -6  -3  -4    7.58    1.12
  -6   3  -4    7.11    1.13
  -6  -3  -5    0.24    0.18
  -6   3  -5    1.11    0.50
   6  -3   5    0.36    0.36
  -6  -3  -6    3.10    0.78
  -6   3  -6    3.35    0.88
  -6  -3  -6    3.67    0.71
  -6  -3  -7    1.17    0.43
  -6   3  -7    0.93    0.44
  -6  -3  -7    1.39    0.45
  -6  -3  -8    2.65    0.69
  -6   3  -8    2.48    0.81
  -6  -3  -8    2.64    0.61
  -6  -3  -9    2.62    0.65
  -6   3  -9    2.44    0.72
  -6  -3  -9    2.58    0.57
  -6  -3 -10    0.19    0.25
  -6   3 -10   -0.05    0.25
  -6  -3 -10    0.12    0.18
  -6  -3 -11    0.06    0.12
  -6  -3 -11    0.03    0.09
  -6   4  13   -0.06    0.11
  -6   4  12    4.70    0.79
  -6  -4  11    0.17    0.22
  -6   4  11   -0.01    0.29
  -6   4  10    3.96    0.66
  -6  -4  10    3.32    0.70
  -6   4  10    3.50    0.85
  -6  -4   9   10.38    1.57
  -6   4   9   10.82    1.18
  -6  -4   9   10.67    1.46
  -6   4   9   11.54    1.61
  -6  -4   8   15.31    1.94
  -6  -4   8   13.73    1.27
  -6  -4   8   12.83    1.65
  -6   4   8   13.73    1.77
  -6  -4   7   16.97    2.07
  -6  -4   7   17.62    1.52
  -6  -4   7   16.96    1.88
  -6   4   7   18.06    2.03
   6  -4  -7   14.60    2.31
  -6  -4   7   19.74    2.32
  -6  -4   6    0.35    0.46
  -6  -4   6    0.29    0.27
  -6  -4   6   -0.13    0.20
  -6   4   6   -0.09    0.36
  -6  -4   6    0.47    0.48
  -6  -4   6    0.04    0.35
  -6  -4   5    7.96    1.32
  -6  -4   5    9.38    1.13
  -6  -4   5    8.54    1.27
  -6   4   5    8.64    1.31
  -6  -4   5    9.77    1.22
  -6  -4   5    8.86    1.58
  -6  -4   5   10.65    1.63
   6  -4  -4    0.15    0.21
  -6  -4   4    0.45    0.38
  -6  -4   3   49.05    3.48
   6  -4  -3   46.86    2.63
  -6  -4   2   11.22    1.63
   6  -4  -2   12.46    1.36
   6  -4  -1   38.89    2.46
   6  -4   0    6.88    1.02
   6  -4   1    1.13    0.58
   6  -4   2    2.17    0.62
  -6  -4  -3   19.98    1.66
   6  -4   3   20.15    2.08
   6  -4   4    6.64    1.27
  -6  -4  -4    6.59    1.05
  -6   4  -4    6.50    1.10
  -6  -4  -5    3.76    0.81
  -6   4  -5    3.04    0.89
  -6  -4  -5    3.00    0.61
   6  -4   5    3.56    1.02
  -6   4  -6    4.09    1.13
  -6  -4  -6    5.00    0.99
  -6  -4  -6    5.08    0.82
  -6   4  -7    0.04    0.24
  -6  -4  -7    0.18    0.23
  -6  -4  -7    0.02    0.20
  -6  -4  -8    0.85    0.42
  -6   4  -8    0.32    0.23
  -6  -4  -8    0.63    0.36
  -6  -4  -9    0.63    0.33
  -6   4  -9    0.43    0.32
  -6  -4  -9    0.47    0.26
  -6   4 -10    2.40    0.58
  -6  -4 -10    3.86    0.63
  -6  -4 -10    4.28    0.58
  -6  -4 -11    0.26    0.13
  -6   4 -11    0.30    0.16
  -6  -4 -11    0.57    0.16
  -6   5  12   -0.14    0.15
  -6   5  11   12.17    1.45
  -6  -5  10    0.73    0.51
  -6   5  10    0.71    0.29
  -6  -5  10    0.22    0.31
  -6   5  10    0.02    0.19
  -6  -5   9   42.71    3.13
  -6   5   9   42.69    2.34
  -6  -5   9   44.58    2.96
  -6   5   9   43.94    3.10
  -6  -5   8   -0.48    0.45
  -6  -5   8    0.18    0.21
  -6   5   8   -0.02    0.29
  -6  -5   7    7.11    1.38
  -6  -5   7    6.13    0.86
  -6  -5   7    6.18    1.15
  -6   5   7    5.65    1.12
   6  -5  -7    5.92    1.54
  -6  -5   7    6.83    1.35
  -6  -5   6   -0.07    0.38
  -6  -5   6   -0.14    0.21
  -6  -5   6   -0.34    0.30
  -6   5   6    0.20    0.23
  -6  -5   6   -0.33    0.37
  -6  -5   6    0.20    0.31
  -6  -5   5    8.79    1.44
  -6  -5   5    9.19    1.64
  -6  -5   5    8.69    1.03
  -6  -5   5    8.24    1.24
  -6   5   5    9.29    1.38
  -6  -5   5    8.94    1.15
  -6  -5   5    9.58    1.60
  -6  -5   4    0.65    0.31
  -6  -5   4    1.02    0.34
  -6  -5   4    1.12    0.35
   6  -5  -4    1.54    0.48
  -6  -5   4    1.37    0.46
  -6  -5   4    1.10    0.38
   6  -5  -3    1.68    0.51
  -6  -5   3    1.76    0.66
  -6  -5   2    6.36    1.31
   6  -5  -2    8.12    1.15
   6  -5  -1   36.21    2.55
   6  -5   0    0.37    0.18
   6  -5   1   10.51    1.44
   6  -5   2    0.54    0.34
  -6  -5  -3    0.10    0.13
  -6   5  -3   -0.09    0.22
   6  -5   3    0.15    0.32
   6  -5   4    0.55    0.32
  -6  -5  -4    0.45    0.31
  -6   5  -4    0.19    0.17
  -6  -5  -4    0.17    0.19
  -6  -5  -5    3.78    0.84
  -6   5  -5    3.27    0.88
  -6  -5  -5    4.18    0.72
   6  -5   5    3.44    1.04
  -6  -5  -6    0.61    0.37
  -6   5  -6    0.95    0.54
  -6  -5  -6    0.80    0.32
  -6   5  -7    0.02    0.20
  -6  -5  -7    0.03    0.17
  -6  -5  -7    0.02    0.21
  -6  -5  -8    0.02    0.19
  -6   5  -8   -0.21    0.33
  -6  -5  -8    0.59    0.37
  -6  -5  -9    0.03    0.20
  -6   5  -9    0.02    0.25
  -6  -5  -9    0.33    0.22
  -6  -5 -10    0.96    0.31
  -6   5 -10    0.76    0.32
  -6  -5 -10    1.49    0.36
  -6  -5 -11    1.99    0.30
  -6   6  12    4.27    0.72
  -6   6  11    0.53    0.26
  -6   6  10    0.13    0.16
  -6   6  10    0.29    0.40
  -6  -6   9   19.35    2.09
  -6   6   9   15.80    1.86
  -6  -6   8   17.63    2.09
  -6  -6   8   16.61    1.83
  -6   6   8   15.71    1.89
  -6  -6   7    0.10    0.36
  -6  -6   7    0.23    0.19
  -6   6   7    0.30    0.35
  -6  -6   7    0.58    0.57
  -6  -6   6    3.38    1.02
  -6  -6   6    3.57    0.99
  -6  -6   6    3.00    0.62
  -6  -6   6    2.93    0.78
  -6   6   6    3.52    0.89
  -6  -6   6    4.65    1.11
  -6  -6   5    0.09    0.26
  -6  -6   5    0.03    0.26
  -6  -6   5    0.31    0.24
  -6  -6   5    0.25    0.25
  -6  -6   5    0.59    0.36
  -6   6   5   -0.13    0.30
  -6  -6   5   -0.04    0.41
  -6  -6   4   -0.17    0.41
  -6  -6   4    0.05    0.30
  -6  -6   4   -0.27    0.24
   6  -6  -4   -0.03    0.19
  -6  -6   4    0.04    0.13
  -6  -6   3    7.28    1.39
  -6  -6   3    6.83    0.85
   6  -6  -3    9.14    1.30
  -6  -6   2    5.07    1.13
   6  -6  -2    5.37    1.00
   6  -6  -1   45.17    3.02
   6  -6   0    6.89    1.15
   6  -6   1   33.27    2.62
   6  -6   2    1.49    0.55
  -6  -6  -3    0.46    0.28
   6  -6   3    0.95    0.54
  -6  -6  -3    0.58    0.18
  -6  -6  -4    8.50    1.14
  -6  -6  -4    9.56    1.06
  -6   6  -4    7.67    1.18
   6  -6   4    9.85    1.69
  -6  -6  -5    0.05    0.21
  -6   6  -5   -0.10    0.27
  -6  -6  -5    0.29    0.20
   6  -6   5   -0.21    0.40
  -6  -6  -6    3.54    0.79
  -6   6  -6    2.31    0.79
  -6  -6  -6    3.32    0.66
  -6  -6  -7    1.21    0.47
  -6   6  -7    1.71    0.72
  -6  -6  -7    1.79    0.52
  -6  -6  -8    3.52    0.75
  -6   6  -8    3.28    0.88
  -6  -6  -8    3.74    0.67
  -6  -6  -9    0.24    0.21
  -6   6  -9    0.22    0.25
  -6  -6  -9    0.60    0.28
  -6  -6 -10    0.03    0.12
  -6   6 -10   -0.08    0.14
  -6   7  12    0.28    0.22
  -6   7  11   -0.08    0.16
  -6  -7  10    3.38    0.84
  -6   7  10    4.01    0.63
  -6   7  10    4.02    0.87
  -6  -7   9    2.44    0.73
  -6   7   9    3.08    0.79
  -6  -7   8    0.32    0.35
  -6  -7   8    1.43    0.53
  -6   7   8    0.44    0.34
  -6  -7   7   -0.09    0.38
  -6  -7   7    0.32    0.33
  -6   7   7    0.39    0.37
  -6  -7   7    0.15    0.39
  -6  -7   6    3.59    1.09
  -6  -7   6    5.70    1.20
  -6  -7   6    4.52    1.00
  -6   7   6    4.39    0.97
  -6  -7   6    5.30    1.22
  -6  -7   5    0.99    0.70
  -6  -7   5    0.25    0.27
  -6  -7   5    0.74    0.30
  -6   7   5    1.06    0.51
  -6  -7   5    0.43    0.44
  -6  -7   4    5.83    1.29
  -6  -7   4    5.62    1.10
  -6  -7   4    6.15    0.93
   6  -7  -4    4.44    0.97
  -6  -7   3    2.84    0.93
  -6  -7   3    3.06    0.79
   6  -7  -3    2.42    0.69
  -6  -7   3    3.06    0.64
  -6  -7   2    0.22    0.25
   6  -7  -2    0.79    0.34
   6  -7  -1   29.51    2.56
   6  -7   0    5.53    1.07
   6  -7   1    2.93    0.82
   6  -7   2   -0.04    0.34
  -6  -7  -2    0.14    0.15
   6  -7   3    5.29    1.20
  -6  -7  -3    5.28    0.89
  -6  -7  -3    4.86    0.74
  -6  -7  -4    7.95    1.09
  -6  -7  -4    8.63    1.02
   6  -7   4    7.08    1.52
  -6  -7  -5    0.67    0.32
  -6   7  -5    0.27    0.26
  -6  -7  -5    0.90    0.35
  -6  -7  -6    0.52    0.33
  -6   7  -6    0.07    0.25
  -6  -7  -6    0.50    0.33
  -6  -7  -7    2.38    0.67
  -6   7  -7    2.04    0.77
  -6  -7  -7    2.57    0.59
  -6  -7  -8    0.23    0.21
  -6   7  -8    0.20    0.28
  -6  -7  -8   -0.07    0.24
  -6  -7  -9    0.04    0.16
  -6   7  -9    0.00    0.15
  -6   7 -10   -0.17    0.14
  -6  -7 -10    0.23    0.17
  -6   8  12    4.35    0.64
  -6   8  11    1.71    0.52
  -6  -8  10    2.41    0.71
  -6   8  10    2.96    0.55
  -6   8  10    3.65    0.81
  -6  -8   9    0.11    0.31
  -6   8   9   -0.11    0.28
  -6  -8   8    2.99    0.82
  -6   8   8    3.43    0.95
  -6  -8   8    2.79    0.88
  -6  -8   7    1.13    0.49
  -6   8   7    2.29    0.80
  -6  -8   7    2.37    0.87
  -6  -8   6   13.85    1.89
  -6   8   6   19.09    2.04
  -6  -8   6   16.00    2.11
  -6  -8   5   -0.62    0.63
  -6  -8   5   -0.20    0.33
  -6  -8   5    0.08    0.13
  -6  -8   5   -0.33    0.48
  -6  -8   4   10.58    1.57
  -6  -8   4    7.35    1.53
  -6  -8   4    9.70    1.17
   6  -8  -4    7.46    1.30
  -6  -8   3    3.56    1.00
  -6  -8   3    2.86    0.75
   6  -8  -3    2.26    0.73
  -6  -8   3    2.80    0.62
   6  -8  -2   10.27    1.51
  -6  -8   2    9.02    1.07
  -6  -8   1   -0.07    0.19
   6  -8  -1   -0.06    0.21
   6  -8   0    3.68    0.92
   6  -8   1    2.11    0.74
  -6  -8  -1    2.21    0.52
  -6  -8  -2    0.25    0.25
   6  -8   2    0.92    0.57
  -6  -8  -2    0.42    0.23
   6  -8   3    1.70    0.69
  -6  -8  -3    0.83    0.35
  -6  -8  -3    0.99    0.45
  -6  -8  -4   20.66    1.72
  -6  -8  -4   21.86    1.65
   6  -8   4   20.68    2.58
  -6  -8  -5    2.99    0.69
  -6  -8  -5    3.43    0.71
  -6  -8  -6    1.89    0.55
  -6  -8  -6    2.06    0.53
  -6  -8  -7    0.20    0.33
  -6  -8  -7   -0.19    0.23
  -6  -8  -8    0.23    0.28
  -6   8  -8    0.33    0.23
  -6  -8  -8   -0.01    0.19
  -6  -8  -9    0.57    0.32
  -6  -8 -10    0.88    0.23
  -6   9  11    0.08    0.19
  -6  -9  10    0.44    0.36
  -6   9  10   -0.03    0.18
  -6  -9   9    0.52    0.31
  -6   9   9    1.36    0.56
  -6  -9   8    2.68    0.78
  -6   9   8    1.72    0.69
  -6  -9   8    1.56    0.66
  -6  -9   7   -0.02    0.53
  -6   9   7    1.18    0.52
  -6  -9   7    0.79    0.65
  -6  -9   6    1.17    0.62
  -6   9   6    0.68    0.32
  -6  -9   6    0.70    0.51
  -6  -9   5   -0.10    0.40
  -6  -9   5    0.11    0.42
  -6  -9   5    1.18    0.59
  -6  -9   4    0.78    0.49
   6  -9  -4    0.49    0.40
  -6  -9   4    0.39    0.34
  -6  -9   4    0.56    0.28
   6  -9  -3    1.29    0.51
  -6  -9   3    1.49    0.67
  -6  -9   3    2.54    0.90
  -6  -9   3    0.73    0.34
   6  -9  -2    0.48    0.30
  -6  -9   2    0.75    0.31
  -6  -9   2    0.85    0.38
   6  -9  -1    7.52    1.41
  -6  -9   1    5.97    0.86
  -6  -9   1    6.18    0.90
   6  -9   0    8.73    1.47
  -6  -9   0    5.78    0.86
  -6  -9   0    6.16    0.89
   6  -9   1    1.56    0.64
  -6  -9  -1    1.64    0.51
  -6  -9  -1    2.24    0.57
  -6  -9  -2    2.97    0.62
   6  -9   2    6.04    1.37
   6  -9   3    1.73    0.79
  -6  -9  -3    1.12    0.36
  -6  -9  -4    0.40    0.31
  -6  -9  -5    4.15    0.80
  -6  -9  -6   -0.08    0.19
  -6  -9  -7   14.07    1.32
  -6  -9  -8    2.51    0.56
  -6  -9  -9    0.36    0.15
  -6  -9  -9    1.91    0.41
  -6  -9 -10    0.39    0.16
  -6  10  11    0.44    0.20
  -6 -10  10    0.25    0.22
  -6  10  10    0.51    0.24
  -6  10  10    0.46    0.23
  -6  10   9    7.09    1.13
  -6 -10   9    4.83    0.93
  -6 -10   8   -0.28    0.40
  -6  10   8   -0.26    0.33
  -6 -10   7   14.04    1.85
  -6  10   7   17.36    1.91
  -6 -10   7   16.61    2.07
  -6 -10   6   -1.04    0.56
  -6 -10   6   -0.25    0.38
  -6 -10   5   11.89    1.74
  -6 -10   5   13.20    1.90
  -6 -10   4    0.28    0.30
  -6 -10   4    0.46    0.37
  -6 -10   4    0.59    0.33
   6 -10  -4    0.60    0.36
  -6 -10   3    6.69    1.39
  -6 -10   3    6.49    1.23
  -6 -10   3    8.17    0.94
   6 -10  -3    8.50    1.42
  -6 -10   3    7.52    1.01
   6 -10  -2    0.13    0.21
  -6 -10   2   -0.01    0.11
  -6 -10   2    0.11    0.23
  -6 -10   1    0.02    0.13
   6 -10  -1   -0.03    0.25
   6 -10   0    2.17    0.71
  -6 -10   0    0.85    0.32
  -6 -10  -1   11.72    1.32
  -6 -10  -1    8.52    1.15
   6 -10   1   12.51    1.85
  -6 -10  -2    0.23    0.23
   6 -10   2    0.19    0.44
  -6 -10  -3    4.95    0.87
  -6 -10  -4    3.23    0.71
  -6 -10  -5   11.18    1.31
  -6 -10  -6    0.45    0.35
  -6 -10  -7    7.58    0.97
  -6 -10  -8   -0.03    0.10
  -6 -10  -8    0.35    0.24
  -6 -10  -9   -0.02    0.11
  -6 -10  -9    0.21    0.17
  -6 -11  10    2.27    0.51
  -6  11  10    2.36    0.45
  -6  11  10    3.60    0.67
  -6 -11   9    1.19    0.45
  -6  11   9    2.06    0.62
  -6 -11   8   -0.45    0.43
  -6 -11   7    0.12    0.33
  -6 -11   7    0.47    0.53
  -6 -11   6    1.89    0.66
  -6 -11   6    2.52    0.83
  -6 -11   5   14.19    1.86
  -6 -11   5   16.26    2.10
  -6 -11   4   40.69    3.14
  -6 -11   3   66.50    3.83
  -6 -11   3   57.88    4.20
  -6 -11   3   67.95    2.73
   6 -11  -3   64.08    4.03
  -6 -11   2    8.99    1.60
   6 -11  -2   12.24    1.82
  -6 -11   2   11.83    1.21
  -6 -11   1    3.20    0.66
   6 -11  -1    3.75    1.04
   6 -11   0    0.70    0.28
  -6 -11   0    1.38    0.43
  -6 -11  -1    1.67    0.49
   6 -11   1    2.46    0.87
  -6 -11  -2    2.94    0.68
  -6 -11  -2    2.19    0.62
  -6 -11  -3    0.63    0.35
  -6 -11  -4    0.39    0.37
  -6 -11  -5    0.96    0.46
  -6 -11  -6   -0.13    0.27
  -6 -11  -6   -0.03    0.24
  -6 -11  -7    0.08    0.13
  -6 -11  -7    0.45    0.27
  -6 -11  -8    0.11    0.09
  -6 -11  -8    0.40    0.18
  -6 -11  -9    0.47    0.18
  -6 -12  10    0.41    0.25
  -6  12  10    0.20    0.14
  -6 -12   9    0.53    0.22
  -6 -12   8    0.86    0.47
  -6 -12   7   12.52    1.60
  -6 -12   7   12.49    1.66
  -6 -12   6    8.05    1.34
  -6 -12   6    9.61    1.54
  -6 -12   5    1.15    0.51
  -6 -12   5    2.25    0.86
  -6 -12   4    0.11    0.28
  -6 -12   4    0.14    0.11
  -6 -12   3   49.08    3.27
  -6 -12   3   52.53    2.42
  -6 -12   2   24.20    1.72
  -6 -12   1   10.64    1.20
  -6 -12   0    1.71    0.52
  -6 -12  -1    9.83    1.21
  -6 -12  -2    1.04    0.41
  -6 -12  -2    1.49    0.50
  -6 -12  -3   -0.08    0.38
  -6 -12  -3    0.30    0.20
  -6 -12  -4    0.46    0.16
  -6 -12  -4    0.19    0.20
  -6 -12  -5    0.37    0.21
  -6 -12  -5    1.04    0.40
  -6 -12  -6    0.28    0.13
  -6 -12  -6    0.41    0.33
  -6 -12  -7    1.25    0.37
  -6 -12  -7    1.68    0.48
  -6 -12  -8    1.32    0.30
  -6 -12  -8    2.05    0.43
  -6 -12  -9    0.29    0.17
  -6 -13  10    0.49    0.27
  -6 -13   9   -0.14    0.27
  -6 -13   8    0.49    0.20
  -6 -13   7    0.23    0.33
  -6 -13   7    1.25    0.53
  -6 -13   6    2.40    0.76
  -6 -13   6    2.83    0.76
  -6 -13   5    3.01    0.83
  -6 -13   5    2.88    0.84
  -6 -13   4    0.08    0.35
  -6 -13   4   -0.04    0.15
  -6 -13   3    9.11    1.34
  -6 -13   3   11.61    1.14
  -6 -13   2   13.12    1.28
  -6 -13   1    0.12    0.14
  -6 -13   0    2.56    0.64
  -6 -13  -1    2.68    0.64
  -6 -13  -2    0.27    0.31
  -6 -13  -3    0.00    0.28
  -6 -13  -3   -0.26    0.18
  -6 -13  -4    0.14    0.18
  -6 -13  -4    0.37    0.37
  -6 -13  -5    0.23    0.15
  -6 -13  -5    0.82    0.40
  -6 -13  -6    0.28    0.18
  -6 -13  -6    0.48    0.34
  -6 -13  -7    0.88    0.28
  -6 -13  -7    1.24    0.38
  -6 -13  -8    4.88    0.46
  -6 -13  -8    7.81    0.76
  -6 -14  10    0.93    0.27
  -6 -14   9    4.04    0.67
  -6 -14   8   -0.25    0.27
  -6 -14   7    0.17    0.20
  -6 -14   6    0.03    0.27
  -6 -14   6   -0.02    0.35
  -6 -14   5   -1.09    0.68
  -6 -14   5    0.26    0.26
  -6 -14   4    9.98    1.42
  -6 -14   4   13.24    1.15
  -6 -14   3   -0.12    0.20
  -6 -14   2    2.71    0.57
  -6 -14   1   14.25    1.35
  -6 -14   0    0.79    0.36
  -6 -14  -1    5.08    0.89
  -6 -14  -2    0.11    0.19
  -6 -14  -3    1.84    0.53
  -6 -14  -4    0.78    0.37
  -6 -14  -5    0.53    0.32
  -6 -14  -5    0.02    0.17
   6 -14   6    0.52    0.30
  -6 -14  -6    0.61    0.27
  -6 -14  -6    0.20    0.16
  -6 -14  -7    0.34    0.19
  -6 -15   9    3.72    0.57
  -6 -15   8   -0.03    0.20
  -6 -15   7    0.10    0.22
  -6 -15   6    1.14    0.51
  -6 -15   6    1.10    0.44
  -6 -15   5   -0.23    0.24
  -6 -15   5    0.16    0.14
  -6 -15   5    0.21    0.24
  -6 -15   4    1.53    0.58
  -6 -15   4    0.81    0.43
  -6 -15   4    1.38    0.35
  -6 -15   3   12.10    1.11
  -6 -15   2    0.68    0.27
  -6 -15   1    0.98    0.35
  -6 -15   0   19.35    1.57
  -6 -15  -1   21.85    1.72
  -6 -15  -2   23.80    1.82
  -6 -15  -3    4.15    0.75
  -6 -15  -4    2.49    0.56
  -6 -15  -5    0.16    0.17
   6 -15   6    0.05    0.20
  -6 -15  -6    0.13    0.14
  -6 -15  -7    0.71    0.19
  -6 -16   8    0.52    0.24
  -6 -16   7   -0.03    0.19
  -6 -16   6    0.33    0.30
  -6 -16   5    1.86    0.49
  -6 -16   5    2.43    0.42
  -6 -16   5    1.43    0.55
  -6 -16   4    0.06    0.19
  -6 -16   4    0.32    0.19
  -6 -16   4    0.14    0.26
  -6 -16   3    0.11    0.12
  -6 -16   2    0.49    0.28
  -6 -16   1    0.71    0.32
  -6 -16   0    6.02    0.85
  -6 -16  -1   25.00    1.74
  -6 -16  -2    3.02    0.61
  -6 -16  -3   11.56    1.13
  -6 -16  -4    0.39    0.29
  -6 -16  -5    0.02    0.15
   6 -16   6    0.55    0.26
  -6 -16  -6    0.35    0.16
  -6 -17   7    0.59    0.25
  -6 -17   6    0.18    0.14
  -6 -17   5    1.07    0.37
  -6 -17   5    0.29    0.12
  -6 -17   4    0.59    0.22
  -6 -17   4    0.30    0.28
  -6 -17   3    3.97    0.59
  -6 -17   2    9.44    0.94
  -6 -17   1    0.34    0.20
  -6 -17   0    0.50    0.27
  -6 -17  -1   -0.03    0.20
  -6 -17  -2    6.65    0.82
  -6 -17  -3   11.87    1.05
  -6 -17  -4    3.48    0.52
   6 -17   5    0.09    0.19
  -6 -17  -5    0.27    0.14
  -6 -18   6    0.64    0.21
  -6 -18   4    0.88    0.24
  -6 -18   4    0.75    0.31
  -6 -18   3    2.09    0.40
  -6 -18   3    1.07    0.43
  -6 -18   2    4.16    0.59
  -6 -18   1    0.22    0.13
  -6 -18   0    0.19    0.11
  -6 -18  -1    0.90    0.29
  -6 -18  -2    0.83    0.27
  -6 -18  -3    0.60    0.22
   6 -18   4   -0.13    0.16
  -6 -18  -4    0.08    0.06
   6 -18   5    1.48    0.36
  -6 -19   4    0.60    0.17
  -6 -19   3    0.25    0.11
  -6 -19   3    0.04    0.14
  -6 -19   2   -0.22    0.31
  -6 -19   2    0.13    0.11
  -6 -19   1    0.34    0.14
  -6 -19   0    0.05    0.11
  -6 -19  -1    2.29    0.39
  -6 -19  -2    1.83    0.34
  -6 -19  -3    1.68    0.31
   6 -19   3    1.85    0.45
   6 -19   4    1.52    0.37
  -6 -20   3    0.03    0.06
  -6 -20   2   -0.06    0.08
  -6 -20   1   -0.28    0.26
  -6 -20   1    0.36    0.15
  -6 -20   0    0.03    0.07
  -6 -20  -1    0.17    0.10
  -6 -20  -2    0.24    0.11
   6 -20   2    0.35    0.21
  -7   0  12    1.65    0.43
  -7   0  11    0.34    0.34
  -7   0  10    0.41    0.41
  -7   0   9    6.15    0.89
  -7   0   9    5.47    1.11
  -7   0   8    0.90    0.59
  -7   0   8    0.58    0.58
  -7   0   7    6.85    1.03
  -7   0   7    7.79    1.39
  -7   0   6    0.31    0.64
  -7   0   6    0.12    0.28
  -7   0   6    0.47    0.60
  -7   0   5    0.25    0.22
  -7   0   5   -0.03    0.15
  -7   0   4   -0.13    0.36
  -7   0   4   -0.05    0.15
  -7   0   4    0.22    0.25
  -7   0   4   -0.29    0.27
  -7   0   4    0.24    0.48
  -7   0   3    0.79    0.39
  -7   0   3    0.46    0.21
  -7   0   3    0.33    0.35
  -7   0   3    0.64    0.33
  -7   0   3    0.90    0.58
  -7   0   2    0.09    0.30
  -7   0   1    8.05    1.34
  -7   0   0    0.26    0.30
  -7   0  -1    1.93    0.57
  -7   0  -2   -0.30    0.31
  -7   0  -3   40.92    2.55
  -7   0  -4   -0.05    0.20
  -7   0  -5    1.84    0.65
  -7   0  -6    0.49    0.44
  -7   0  -7   27.32    2.43
  -7   0  -8   -0.18    0.31
  -7   0  -9    0.96    0.36
  -7   0 -10    0.22    0.21
  -7  -1  12    7.07    0.85
  -7   1  12    9.39    1.02
  -7   1  11    4.85    0.90
  -7  -1  11    3.51    0.72
  -7   1  10    0.81    0.29
  -7  -1  10    1.51    0.56
  -7   1  10    0.92    0.35
  -7  -1   9    2.10    0.52
  -7   1   9    0.63    0.28
  -7  -1   9    0.97    0.58
  -7   1   9    0.70    0.38
  -7  -1   8   12.60    1.33
  -7   1   8   10.97    1.25
  -7  -1   8   10.73    1.56
  -7   1   8   12.65    1.72
  -7  -1   7    1.79    0.72
  -7   1   7    1.26    0.58
  -7  -1   7    0.94    0.52
  -7   1   7    1.60    0.68
  -7  -1   6   16.61    1.55
  -7   1   6   15.25    1.51
  -7  -1   6   18.27    2.03
  -7   1   6   15.81    1.95
  -7  -1   6   18.33    1.76
  -7  -1   6   17.54    2.21
  -7  -1   5    0.15    0.31
  -7  -1   5    0.04    0.18
  -7   1   5   -0.07    0.21
  -7  -1   5    0.09    0.29
  -7   1   5   -0.38    0.43
  -7   1   5    0.09    0.21
  -7  -1   5    0.01    0.28
  -7  -1   5    0.00    0.48
  -7   1   4    0.74    0.57
  -7  -1   4    0.42    0.44
  -7  -1   4    0.48    0.24
  -7   1   4   -0.07    0.21
  -7  -1   4    0.18    0.21
  -7   1   4    0.25    0.18
  -7   1   4    0.41    0.29
  -7  -1   4   -0.38    0.24
  -7   1   4   -0.02    0.27
  -7  -1   4    0.15    0.30
  -7   1   3    2.57    0.79
  -7  -1   3    3.10    0.95
  -7  -1   3    1.90    0.49
  -7   1   3    1.79    0.49
  -7  -1   3    3.47    0.85
  -7   1   3    2.29    0.70
  -7   1   3    1.79    0.51
  -7  -1   3    2.01    0.55
  -7   1   2   -0.21    0.29
  -7  -1   2    0.15    0.50
  -7   1   1   -0.35    0.37
  -7  -1   1    0.05    0.20
  -7  -1   0    0.19    0.24
  -7  -1  -1    2.81    0.80
  -7  -1  -1    2.57    0.61
  -7   1  -1    2.24    0.55
  -7  -1  -2   16.89    1.59
  -7   1  -2   16.72    1.58
  -7  -1  -3    2.63    0.66
  -7   1  -3    1.50    0.52
  -7  -1  -4   31.80    2.34
  -7   1  -4   31.42    2.45
  -7  -1  -5   72.49    3.71
  -7   1  -5   73.03    3.80
  -7  -1  -6   17.25    1.90
  -7   1  -6   15.26    1.81
  -7  -1  -7   24.46    2.21
  -7   1  -7   24.26    2.24
  -7  -1  -8    5.13    1.01
  -7   1  -8    5.13    1.06
  -7  -1  -9    0.08    0.22
  -7   1  -9    0.08    0.32
  -7  -1 -10    2.18    0.47
  -7   1 -10    2.18    0.49
  -7   2  12    8.42    0.93
  -7  -2  11    6.10    0.92
  -7   2  11    5.66    0.93
  -7   2  10    0.53    0.31
  -7  -2  10    0.13    0.22
  -7  -2   9   -0.19    0.23
  -7   2   9    0.69    0.35
  -7  -2   9    0.31    0.30
  -7   2   9    1.06    0.75
  -7  -2   8    2.44    0.62
  -7   2   8    2.76    0.68
  -7  -2   8    2.38    0.79
  -7   2   8    1.96    1.06
  -7  -2   7    6.33    0.96
  -7   2   7    6.99    1.03
  -7  -2   7    6.29    1.20
  -7   2   7    6.81    1.34
  -7  -2   6    1.93    0.95
  -7  -2   6    1.69    0.77
  -7   2   6    0.13    0.56
  -7  -2   6    0.74    0.54
  -7  -2   6    1.10    0.78
  -7   2   6    0.36    0.68
  -7  -2   6    0.36    0.50
  -7  -2   5    0.54    0.40
  -7  -2   5   -0.16    0.25
  -7  -2   5    0.29    0.18
  -7   2   5    0.92    0.44
  -7  -2   5   -0.03    0.29
  -7   2   5    1.10    0.49
  -7  -2   5    0.16    0.23
  -7   2   5   -0.11    0.35
  -7  -2   5    0.05    0.34
  -7  -2   4    2.75    0.88
  -7  -2   4    3.67    0.72
  -7  -2   4    3.54    0.88
  -7   2   4    2.92    0.80
  -7   2   4    3.36    0.73
  -7  -2   4    3.41    0.74
  -7  -2   4    2.74    0.92
  -7   2   3   20.69    2.23
  -7  -2   3   16.34    2.10
  -7  -2   3   17.33    1.48
  -7   2   3   17.17    1.45
  -7  -2   3   15.56    1.77
  -7   2   3   16.64    1.80
  -7   2   3   16.16    1.50
  -7  -2   3   15.71    1.52
  -7  -2   3   18.46    2.12
  -7   2   2   15.33    1.81
  -7  -2   2   14.11    1.93
  -7  -2   2   12.90    1.37
  -7   2   1    2.93    0.78
  -7  -2   1    2.28    0.80
  -7  -2   1    2.29    0.58
  -7  -2   0    1.62    0.66
  -7  -2   0    1.38    0.45
  -7  -2  -1    3.76    1.00
  -7  -2  -1    2.73    0.63
  -7   2  -1    2.99    0.68
  -7  -2  -2    7.25    1.05
   7  -2   2    7.22    1.20
  -7   2  -2    7.86    1.09
  -7   2  -3    3.50    0.79
  -7  -2  -3    4.65    0.89
   7  -2   3    4.66    0.98
   7  -2   4    8.13    1.42
  -7  -2  -4    7.95    1.18
  -7   2  -4    8.59    1.28
  -7  -2  -5    0.95    0.45
  -7   2  -5    0.73    0.50
  -7  -2  -6   -0.18    0.21
  -7   2  -6   13.43    1.67
  -7  -2  -7    4.17    0.91
  -7   2  -7    4.51    0.98
  -7  -2  -8    1.33    0.52
  -7   2  -8    0.93    0.46
  -7  -2  -9   -0.03    0.18
  -7   2  -9   -0.23    0.26
  -7  -2 -10    0.42    0.23
  -7   2 -10    0.21    0.12
  -7   3  12    0.88    0.33
  -7  -3  11    1.09    0.43
  -7   3  11    0.81    0.35
  -7   3  10    7.58    0.88
  -7  -3  10    8.97    1.32
  -7   3  10    8.90    1.33
  -7  -3   9    8.70    0.92
  -7   3   9   10.13    1.15
  -7  -3   9   11.33    1.50
  -7   3   9   11.85    1.65
  -7  -3   8   24.44    1.76
  -7   3   8   27.59    1.95
  -7  -3   8   26.95    2.40
  -7   3   8   27.72    2.62
  -7  -3   7   10.76    1.71
  -7  -3   7   10.06    1.21
  -7   3   7   10.41    1.26
  -7  -3   7   10.07    1.49
  -7   3   7    9.22    1.57
  -7  -3   6   60.73    3.92
  -7  -3   6   64.76    4.71
  -7  -3   6   60.75    3.02
  -7  -3   6   58.81    3.61
  -7   3   6   59.32    3.78
  -7  -3   6   63.77    3.30
  -7  -3   6   66.43    4.32
  -7  -3   5   35.28    2.89
  -7  -3   5   35.47    3.33
  -7  -3   5   33.85    2.22
  -7  -3   5   34.14    2.67
  -7   3   5   33.95    2.79
  -7   3   5   33.88    2.18
  -7  -3   5   35.65    2.44
  -7  -3   5   36.59    3.20
  -7  -3   4    6.39    1.22
  -7  -3   4    6.75    1.43
  -7  -3   4    8.23    1.05
  -7  -3   4    5.64    1.07
  -7   3   4    6.76    1.21
  -7   3   4    6.52    0.94
  -7  -3   4    6.55    1.01
  -7  -3   4    7.76    1.50
  -7  -3   3    1.34    0.54
  -7  -3   3    0.82    0.31
  -7  -3   3    1.23    0.58
  -7   3   3    0.78    0.48
  -7   3   3    0.86    0.34
  -7  -3   3    1.28    0.49
  -7  -3   3   -0.20    0.46
  -7  -3   2   10.19    1.66
  -7  -3   2    9.68    1.07
  -7  -3   2    8.76    1.13
  -7  -3   2   10.59    1.60
  -7  -3   1   93.13    4.92
  -7  -3   1   90.97    3.55
  -7  -3   0    2.36    0.77
   7  -3   0    4.23    0.87
  -7  -3   0    2.25    0.57
   7  -3   1    3.93    0.90
  -7  -3  -1    2.21    0.60
  -7   3  -1    3.25    0.70
  -7  -3  -2    0.17    0.15
  -7   3  -2   -0.16    0.28
   7  -3   2    0.06    0.23
   7  -3   3   16.87    2.03
  -7  -3  -3   17.48    1.69
  -7   3  -3   18.77    1.78
  -7  -3  -4    0.01    0.17
  -7   3  -4    0.42    0.36
   7  -3   4   -0.17    0.35
  -7  -3  -5    1.17    0.55
  -7   3  -5    0.18    0.31
  -7  -3  -6    2.60    0.67
  -7   3  -6    2.57    0.80
  -7  -3  -7    3.06    0.78
  -7   3  -7    3.11    0.86
  -7  -3  -8    3.52    0.78
  -7   3  -8    2.40    0.63
  -7  -3  -8    2.72    0.53
  -7  -3  -9   -0.08    0.12
  -7   3  -9   -0.07    0.18
  -7  -3  -9    0.12    0.13
  -7  -3 -10    1.74    0.36
  -7   3 -10    1.51    0.36
  -7   4  12    0.28    0.22
  -7   4  11    0.18    0.20
  -7   4  10    4.90    0.71
  -7  -4  10    4.68    0.86
  -7   4  10    4.97    1.00
  -7   4   9    1.79    0.46
  -7  -4   9    1.27    0.49
  -7   4   9    1.43    0.72
  -7  -4   8    3.07    0.95
  -7  -4   8    3.23    0.65
  -7   4   8    3.28    0.67
  -7  -4   8    2.71    0.77
  -7   4   8    2.62    0.77
  -7  -4   7   36.83    3.10
  -7  -4   7   36.57    2.21
  -7  -4   7   41.72    3.01
  -7   4   7   39.16    3.16
  -7  -4   7   38.56    3.32
  -7  -4   6   51.08    3.62
  -7  -4   6   51.51    4.25
  -7  -4   6   48.79    2.65
  -7  -4   6   48.23    3.25
  -7   4   6   48.56    3.46
  -7  -4   6   51.22    2.95
  -7  -4   6   50.74    3.86
  -7  -4   5   12.95    1.80
  -7  -4   5   13.22    2.09
  -7  -4   5   12.63    1.34
  -7  -4   5   12.90    1.66
  -7   4   5   13.09    1.76
  -7  -4   5   13.10    1.48
  -7  -4   5   14.28    2.04
  -7  -4   4   22.59    2.25
  -7  -4   4   23.46    2.69
  -7  -4   4   22.76    1.76
  -7  -4   4   23.81    2.15
  -7   4   4   21.62    2.14
  -7  -4   4   22.22    1.87
  -7  -4   4   24.91    2.64
  -7  -4   3   -0.23    0.44
  -7  -4   3   -0.15    0.37
  -7  -4   3    0.11    0.15
  -7   4   3    0.04    0.24
  -7  -4   3    0.52    0.24
  -7  -4   3    0.24    0.27
  -7  -4   2    0.60    0.40
  -7  -4   2    0.07    0.19
   7  -4  -1    0.88    0.43
  -7  -4   1    0.15    0.45
  -7  -4   1   -0.20    0.24
  -7  -4   1    0.26    0.20
   7  -4   0    1.00    0.44
  -7  -4   0    0.90    0.39
  -7   4   0    1.08    0.39
   7  -4   1    6.14    1.14
  -7  -4  -1    5.53    0.89
  -7   4  -1    4.53    0.84
  -7   4  -2    0.78    0.54
   7  -4   2    1.30    0.62
  -7  -4  -2   -0.10    0.18
  -7  -4  -3    7.78    1.09
   7  -4   3    9.20    1.54
  -7   4  -3    7.62    1.15
  -7  -4  -4    5.51    0.96
  -7   4  -4    5.24    0.99
   7  -4   4    6.40    1.33
  -7  -4  -5    0.81    0.54
  -7   4  -5   -0.10    0.34
  -7  -4  -6    0.22    0.42
  -7   4  -6    0.20    0.21
  -7  -4  -7    2.71    0.71
  -7   4  -7    2.97    0.78
  -7  -4  -7    2.42    0.48
  -7  -4  -8   -0.06    0.16
  -7   4  -8   -0.37    0.32
  -7  -4  -8    0.34    0.22
  -7  -4  -9    1.21    0.37
  -7   4  -9    0.26    0.22
  -7  -4  -9    1.13    0.32
  -7   4 -10    0.19    0.15
  -7  -4 -10    0.23    0.17
  -7   5  12    0.15    0.13
  -7   5  11    2.51    0.61
  -7   5  10   10.65    1.02
  -7   5  10   13.90    1.62
  -7   5   9    2.35    0.54
  -7  -5   9    2.48    0.70
  -7   5   9    2.23    0.69
  -7  -5   8    8.83    1.47
  -7  -5   8   13.42    1.19
  -7   5   8    9.64    1.16
  -7  -5   8    9.67    1.43
  -7   5   8    9.36    1.53
  -7  -5   7    7.36    1.36
  -7  -5   7    7.20    0.94
  -7  -5   7    7.75    1.31
  -7   5   7    7.48    1.36
  -7  -5   7    6.68    1.42
  -7  -5   6    2.17    0.74
  -7  -5   6    0.67    0.28
  -7  -5   6    0.87    0.42
  -7   5   6    1.75    0.65
  -7  -5   6    2.35    0.97
  -7  -5   5   23.98    2.49
  -7  -5   5   24.37    2.87
  -7  -5   5   21.42    1.68
  -7  -5   5   25.11    2.29
  -7   5   5   24.51    2.39
  -7  -5   5   25.17    2.03
  -7  -5   5   24.87    2.72
  -7  -5   4    8.06    1.38
  -7  -5   4   10.63    1.82
  -7  -5   4    7.23    0.94
  -7  -5   4    7.48    1.09
  -7   5   4    6.30    1.15
  -7  -5   4   11.03    1.72
  -7  -5   3    3.96    1.05
  -7  -5   3    3.89    0.88
  -7  -5   3    3.47    1.10
  -7  -5   3    3.54    0.65
  -7   5   3    3.14    0.79
  -7  -5   3    3.84    0.77
  -7  -5   2    0.12    0.22
  -7  -5   2    0.08    0.24
   7  -5  -2   -0.18    0.21
  -7  -5   2   -0.22    0.30
   7  -5  -1   -0.25    0.26
  -7  -5   1    0.81    0.66
  -7  -5   1    0.33    0.25
   7  -5   0    3.48    0.90
  -7  -5   0    3.16    0.68
   7  -5   1    2.14    0.68
  -7  -5  -1    2.24    0.57
  -7  -5  -2   19.27    1.68
  -7   5  -2   19.80    1.79
   7  -5   2   20.84    2.32
  -7  -5  -3    0.00    0.15
  -7   5  -3    0.31    0.22
   7  -5   3    0.53    0.36
  -7  -5  -4    1.85    0.54
  -7   5  -4    1.72    0.60
  -7  -5  -5    0.32    0.24
  -7   5  -5   -0.16    0.27
  -7  -5  -6    1.18    0.50
  -7   5  -6    0.98    0.55
  -7  -5  -6    1.34    0.43
  -7  -5  -7   -0.04    0.14
  -7   5  -7   -0.20    0.30
  -7  -5  -7    0.30    0.23
  -7  -5  -8   -0.15    0.20
  -7   5  -8   -0.01    0.27
  -7  -5  -8   -0.18    0.21
  -7  -5  -9   -0.05    0.13
  -7   5  -9    0.04    0.13
  -7  -5  -9    0.20    0.17
  -7   5 -10    0.10    0.12
  -7  -5 -10   -0.14    0.10
  -7   6  12    1.54    0.38
  -7   6  11    4.01    0.74
  -7   6  10    0.32    0.19
  -7   6  10    0.37    0.29
  -7  -6   9    0.38    0.51
  -7   6   9    0.17    0.18
  -7   6   9    0.37    0.40
  -7  -6   8    0.92    0.58
  -7   6   8    1.20    0.51
  -7  -6   7   18.77    2.18
  -7  -6   7   26.94    1.71
  -7  -6   7   22.14    2.17
  -7   6   7   20.75    2.30
  -7  -6   7   21.89    2.53
  -7  -6   6    7.24    1.35
  -7  -6   6   11.10    1.23
  -7   6   6    8.55    1.51
  -7  -6   6    7.34    1.49
  -7  -6   5    0.13    0.35
  -7  -6   5    0.71    0.58
  -7  -6   5    2.13    0.68
  -7  -6   5    1.41    0.53
  -7   6   5    1.04    0.54
  -7  -6   5    0.11    0.32
  -7  -6   4    0.28    0.31
  -7  -6   4   -0.27    0.29
  -7   6   4    0.02    0.25
  -7  -6   4   -0.08    0.27
  -7  -6   4   -0.10    0.54
  -7  -6   3    3.63    0.97
   7  -6  -3    1.81    0.66
  -7  -6   3    3.60    0.88
  -7  -6   3    3.44    1.08
  -7  -6   3    5.53    0.85
  -7  -6   3    3.00    0.68
  -7  -6   2    0.67    0.34
  -7  -6   2    0.55    0.31
   7  -6  -2    0.71    0.51
  -7  -6   2    0.72    0.27
  -7  -6   1    0.18    0.24
   7  -6  -1    0.08    0.27
  -7  -6   1   -0.16    0.24
  -7  -6   0    1.99    0.55
   7  -6   0    1.97    0.72
  -7  -6  -1    4.04    1.11
   7  -6   1    3.62    0.98
   7  -6   2    1.98    0.70
  -7  -6  -2    2.97    0.69
  -7   6  -3    4.94    0.94
  -7  -6  -3    5.55    0.95
   7  -6   3    7.76    1.50
  -7  -6  -4    3.68    0.78
  -7   6  -4    4.19    0.89
  -7  -6  -5   -0.11    0.23
  -7  -6  -5   -0.25    0.24
  -7  -6  -6    1.03    0.48
  -7   6  -6    0.10    0.24
  -7  -6  -6    0.86    0.46
  -7  -6  -7    0.11    0.18
  -7   6  -7    0.11    0.21
  -7  -6  -7    0.46    0.28
  -7  -6  -8    2.55    0.60
  -7   6  -8    2.53    0.63
  -7  -6  -8    4.23    0.63
  -7   6  -9    0.27    0.15
  -7  -6  -9    0.41    0.18
  -7  -6  -9    0.27    0.18
  -7   7  11    0.56    0.31
  -7   7  10    0.24    0.16
  -7   7  10    0.26    0.26
  -7  -7   9    1.02    0.59
  -7   7   9    0.60    0.28
  -7   7   9    0.40    0.32
  -7  -7   8    0.83    0.44
  -7   7   8    0.20    0.25
  -7  -7   7    5.58    1.15
  -7   7   7    6.64    1.32
  -7  -7   7    6.88    1.40
  -7   7   6   -0.13    0.32
  -7  -7   6    0.30    0.56
  -7  -7   5   -0.23    0.39
  -7  -7   5   -0.17    0.19
  -7   7   5   -0.20    0.23
  -7  -7   5   -0.22    0.50
  -7  -7   4    2.06    0.92
  -7  -7   4    1.89    1.13
  -7  -7   4    1.14    0.47
   7  -7  -4    0.96    0.52
  -7  -7   4    1.02    0.57
  -7  -7   3    0.60    0.36
   7  -7  -3   -0.06    0.39
  -7  -7   3   -0.37    0.42
  -7  -7   3    0.09    0.27
  -7  -7   2   -0.10    0.31
   7  -7  -2    0.29    0.33
  -7  -7   2    0.29    0.34
   7  -7  -1    8.58    1.46
  -7  -7   1    9.19    1.70
  -7  -7   1    7.72    0.95
  -7  -7   1    8.43    1.08
  -7  -7   0    8.45    1.12
   7  -7   0    8.02    1.42
  -7  -7  -1   27.72    2.00
   7  -7   1   38.23    3.31
   7  -7   2   -0.24    0.38
  -7  -7  -2    0.16    0.19
  -7  -7  -3    0.28    0.23
  -7  -7  -4    4.44    0.75
  -7  -7  -4    3.79    0.76
  -7   7  -5    0.53    0.35
  -7  -7  -5    1.22    0.37
  -7  -7  -5    0.84    0.35
  -7  -7  -6    4.46    0.82
  -7   7  -6    4.30    0.98
  -7  -7  -6    5.62    0.83
  -7   7  -7    0.99    0.45
  -7  -7  -7    1.17    0.37
  -7  -7  -7    0.73    0.38
  -7   7  -8    0.16    0.18
  -7  -7  -8    0.67    0.29
  -7  -7  -8    0.47    0.24
  -7   7  -9    0.09    0.09
  -7  -7  -9    0.30    0.19
  -7  -7  -9   -0.04    0.14
  -7   8  11    8.34    0.99
  -7   8  10   -0.15    0.14
  -7   8  10   -0.45    0.35
  -7  -8   9   -0.33    0.40
  -7   8   9   -0.01    0.14
  -7   8   9   -0.30    0.41
  -7  -8   8    0.34    0.42
  -7   8   8    0.03    0.25
  -7  -8   7    2.06    0.66
  -7   8   7    3.97    1.00
  -7  -8   7    3.75    1.06
  -7  -8   6   12.65    1.81
  -7   8   6   15.82    1.94
  -7  -8   6   13.35    1.95
  -7  -8   5    0.52    0.51
  -7  -8   5    0.61    0.35
  -7  -8   5    0.55    0.25
  -7  -8   4    4.39    0.97
  -7  -8   4    5.37    0.92
   7  -8  -4    3.18    0.88
  -7  -8   4    4.56    1.12
  -7  -8   3    6.51    1.24
  -7  -8   3    6.70    1.54
   7  -8  -3    7.13    1.40
  -7  -8   3    8.28    1.12
  -7  -8   2    1.05    0.61
  -7  -8   2    0.97    0.37
   7  -8  -2    1.36    0.68
   7  -8  -1    0.04    0.34
  -7  -8   1   -0.09    0.17
  -7  -8   1   -0.26    0.29
  -7  -8   0    5.61    0.88
   7  -8   0    6.65    1.36
  -7  -8  -1    5.98    0.94
   7  -8   1    9.01    1.67
   7  -8   2    0.45    0.42
  -7  -8  -2    0.18    0.28
  -7  -8  -3   17.07    1.60
  -7  -8  -3   17.63    1.46
  -7  -8  -4    3.46    0.67
  -7  -8  -4    2.49    0.66
  -7  -8  -5   10.02    1.23
  -7  -8  -5   13.08    1.27
  -7  -8  -6    8.22    1.09
  -7  -8  -6   10.13    1.07
  -7  -8  -7    0.01    0.14
  -7  -8  -7    0.07    0.13
  -7  -8  -8    0.87    0.28
  -7  -8  -8    0.71    0.27
  -7  -8  -9    0.61    0.19
  -7  -8  -9    1.43    0.30
  -7   9  11    0.93    0.31
  -7   9  10    1.00    0.28
  -7   9  10    1.99    0.52
  -7  -9   9    0.88    0.46
  -7   9   9    1.00    0.40
  -7  -9   8   -0.11    0.41
  -7   9   8    0.04    0.30
  -7  -9   7    0.39    0.34
  -7   9   7    0.57    0.36
  -7  -9   7    0.86    0.67
  -7  -9   6   -0.23    0.56
  -7  -9   6   -0.02    0.24
  -7  -9   5    0.40    0.39
  -7  -9   5    0.49    0.93
  -7  -9   4    0.65    0.52
  -7  -9   4   -0.31    0.50
  -7  -9   4    0.17    0.19
   7  -9  -3    4.37    1.12
  -7  -9   3    3.57    0.94
  -7  -9   3    3.18    0.64
  -7  -9   2    2.63    0.97
  -7  -9   2    1.63    0.44
   7  -9  -2    2.85    0.93
  -7  -9   2    1.79    0.52
   7  -9  -1   -0.02    0.24
  -7  -9   1   -0.04    0.10
  -7  -9   1    0.44    0.24
  -7  -9   0    0.39    0.18
  -7  -9   0    0.27    0.14
   7  -9   0    0.84    0.55
  -7  -9  -1    2.02    0.56
  -7  -9  -2   -0.02    0.19
  -7  -9  -2    0.50    0.23
  -7  -9  -3    0.59    0.39
  -7  -9  -3    0.78    0.39
  -7  -9  -4    3.53    0.76
  -7  -9  -4    3.70    0.68
  -7  -9  -5    1.77    0.46
  -7  -9  -5    1.57    0.49
  -7  -9  -6    0.25    0.21
  -7  -9  -6    0.27    0.21
  -7  -9  -7    0.15    0.14
  -7  -9  -8    0.46    0.19
  -7  -9  -8    0.91    0.29
  -7  -9  -9    0.65    0.18
  -7  10  10   -0.09    0.13
  -7  10  10   -0.01    0.19
  -7 -10   9    1.65    0.52
  -7  10   9    2.14    0.58
  -7 -10   8   -0.08    0.37
  -7  10   8   -0.59    0.43
  -7 -10   7   -0.72    0.58
  -7 -10   7    0.24    0.34
  -7 -10   6    8.04    1.39
  -7 -10   6    9.15    1.57
  -7 -10   5    5.86    1.19
  -7 -10   5    6.05    1.30
  -7 -10   4    1.07    0.63
  -7 -10   4    0.62    0.35
  -7 -10   4    1.17    0.45
  -7 -10   3    0.64    0.53
  -7 -10   3    1.36    0.51
  -7 -10   2   25.08    1.72
  -7 -10   2   23.33    1.84
  -7 -10   1    6.15    0.92
  -7 -10   1    5.89    0.92
  -7 -10   0    8.96    1.13
  -7 -10   0    7.93    1.03
  -7 -10  -1   -0.18    0.26
  -7 -10  -1    0.35    0.32
  -7 -10  -2    0.33    0.27
  -7 -10  -2    0.44    0.30
  -7 -10  -3    0.14    0.21
  -7 -10  -4    0.07    0.18
  -7 -10  -5   -0.02    0.15
  -7 -10  -6    1.23    0.38
  -7 -10  -7    2.20    0.45
  -7 -10  -7    2.81    0.51
  -7 -10  -8    0.82    0.25
  -7 -10  -8    1.93    0.38
  -7  11  10    0.27    0.15
  -7 -11   9   -0.19    0.28
  -7 -11   8   -0.39    0.39
  -7 -11   7    1.34    0.48
  -7 -11   7    1.53    0.58
  -7 -11   6    2.03    0.66
  -7 -11   6    1.80    0.67
  -7 -11   5    1.12    0.53
  -7 -11   5    2.66    0.91
  -7 -11   4    8.06    1.33
  -7 -11   4    8.73    1.58
  -7 -11   3   62.63    3.59
  -7 -11   3   67.60    2.66
  -7 -11   3   72.86    3.12
  -7 -11   2   71.48    2.89
  -7 -11   2   75.60    3.16
  -7 -11   1   17.02    1.50
  -7 -11   0   10.54    1.24
  -7 -11  -1   -0.01    0.24
  -7 -11  -2   -0.07    0.13
  -7 -11  -3   -0.23    0.29
  -7 -11  -3   -0.25    0.32
  -7 -11  -4   -0.10    0.37
  -7 -11  -4    0.02    0.19
  -7 -11  -5    4.32    0.77
  -7 -11  -5    4.91    0.78
  -7 -11  -6    1.59    0.41
  -7 -11  -6    1.73    0.44
  -7 -11  -7    0.19    0.11
  -7 -11  -7    0.37    0.19
  -7 -11  -8    1.49    0.28
  -7 -11  -8    2.78    0.42
  -7 -12   9   -0.05    0.22
  -7  12   9   -0.11    0.14
  -7 -12   8    0.32    0.26
  -7 -12   7    2.82    0.74
  -7 -12   7    2.65    0.72
  -7 -12   6    1.71    0.66
  -7 -12   6    1.43    0.60
  -7 -12   5   37.72    2.79
  -7 -12   5   39.20    3.08
  -7 -12   4   -0.11    0.43
  -7 -12   4    0.13    0.32
  -7 -12   3    1.53    0.42
  -7 -12   2    5.39    0.80
  -7 -12   1   11.96    1.25
  -7 -12   0    0.07    0.18
  -7 -12  -1    2.63    0.65
  -7 -12  -2   -0.15    0.32
  -7 -12  -3    3.85    0.76
  -7 -12  -4    6.19    0.93
  -7 -12  -4    5.22    0.84
  -7 -12  -5    0.49    0.22
  -7 -12  -5    1.03    0.39
  -7 -12  -6    0.00    0.16
  -7 -12  -6   -0.25    0.24
  -7 -12  -7    0.60    0.26
  -7 -12  -7    0.05    0.16
  -7 -13   9    1.05    0.36
  -7  13   9    0.99    0.27
  -7 -13   8    0.23    0.19
  -7 -13   7    0.29    0.29
  -7 -13   7    0.78    0.42
  -7 -13   6    1.25    0.44
  -7 -13   6    0.88    0.43
  -7 -13   5   16.09    1.73
  -7 -13   5   18.51    2.00
  -7 -13   4    3.17    0.77
  -7 -13   4    3.47    0.93
  -7 -13   3   -0.06    0.20
  -7 -13   2   14.62    1.27
  -7 -13   1    1.55    0.46
  -7 -13   0    0.54    0.29
  -7 -13  -1    1.49    0.48
  -7 -13  -2    1.41    0.44
  -7 -13  -3    2.35    0.60
  -7 -13  -4    0.03    0.18
  -7 -13  -5   -0.11    0.20
  -7 -13  -6    0.15    0.14
  -7 -13  -7    0.56    0.20
  -7  14   9    2.30    0.37
  -7 -14   8    1.28    0.36
  -7 -14   7    1.92    0.52
  -7 -14   7    2.74    0.63
  -7 -14   6    3.54    0.71
  -7 -14   6    4.07    0.86
  -7 -14   5    0.95    0.48
  -7 -14   5    0.94    0.48
  -7 -14   4    2.14    0.60
  -7 -14   4    2.68    0.79
  -7 -14   3    6.92    0.80
  -7 -14   2    0.42    0.24
  -7 -14   1    0.42    0.22
  -7 -14   0    2.50    0.58
  -7 -14  -1    0.49    0.30
  -7 -14  -2    0.84    0.40
  -7 -14  -3    0.44    0.27
  -7 -14  -4    0.44    0.23
  -7 -14  -5    0.47    0.23
  -7 -14  -6    0.77    0.25
  -7 -15   8    0.47    0.21
  -7 -15   7    0.40    0.24
  -7 -15   6   -0.10    0.17
  -7 -15   6    0.16    0.23
  -7 -15   5    1.27    0.43
  -7 -15   5    0.52    0.31
  -7 -15   4    5.38    0.62
  -7 -15   4    3.85    0.86
  -7 -15   3    0.22    0.30
  -7 -15   3    0.27    0.12
  -7 -15   2    3.99    0.63
  -7 -15   1    0.44    0.27
  -7 -15   0    1.38    0.40
  -7 -15  -1    4.65    0.75
  -7 -15  -2   18.85    1.46
  -7 -15  -3   17.45    1.36
  -7 -15  -4    0.98    0.33
  -7 -15  -5    0.19    0.19
  -7 -15  -6    0.21    0.11
  -7 -16   7    0.29    0.17
  -7 -16   6    2.23    0.46
  -7 -16   5    0.13    0.16
  -7 -16   5    0.39    0.32
  -7 -16   4    5.14    0.56
  -7 -16   4    3.78    0.76
  -7 -16   3    0.03    0.27
  -7 -16   3    0.25    0.15
  -7 -16   2    1.65    0.37
  -7 -16   1   -0.14    0.19
  -7 -16   0    0.10    0.18
  -7 -16  -1    7.92    0.88
  -7 -16  -2   14.08    1.17
  -7 -16  -3    9.83    0.92
  -7 -16  -4    3.36    0.49
   7 -16   5   -0.06    0.15
  -7 -16  -5    0.08    0.09
  -7 -17   5    1.00    0.37
  -7 -17   4    2.67    0.61
  -7 -17   3    0.05    0.07
  -7 -17   3   -0.04    0.25
  -7 -17   2    4.84    0.59
  -7 -17   1    0.06    0.15
  -7 -17   0    1.27    0.31
  -7 -17  -1    1.94    0.40
  -7 -17  -2    4.23    0.58
  -7 -17  -3    2.91    0.46
   7 -17   4    5.47    0.71
  -7 -17  -4    5.06    0.52
  -7 -18   4    0.83    0.35
  -7 -18   3    1.42    0.26
  -7 -18   3    1.15    0.39
  -7 -18   2   -0.03    0.10
  -7 -18   2    0.03    0.20
  -7 -18   1    0.39    0.23
  -7 -18   0    0.76    0.32
  -7 -18  -1    0.51    0.20
  -7 -18  -2    1.38    0.28
  -7 -18  -3    0.07    0.08
  -7 -19   2    0.01    0.06
  -7 -19   2   -0.03    0.12
  -7 -19   1    0.35    0.14
  -7 -19   1   -0.28    0.19
  -7 -19   0   -0.14    0.16
  -7 -19   0    0.09    0.09
  -7 -19  -1    1.60    0.27
  -7 -19  -2   -0.02    0.06
  -8   0  11    1.86    0.56
  -8   0  10    4.17    0.55
  -8   0  10    4.80    0.91
  -8   0   9    0.04    0.13
  -8   0   9   -0.11    0.27
  -8   0   8    6.45    0.96
  -8   0   8    7.34    1.35
  -8   0   7    0.80    0.37
  -8   0   7   -0.42    0.37
  -8   0   6   10.37    1.30
  -8   0   6   11.42    1.75
  -8   0   5   -0.05    0.17
  -8   0   5   -0.02    0.33
  -8   0   5    0.27    0.31
  -8   0   4    1.36    1.04
  -8   0   4    0.37    0.69
  -8   0   4    0.27    0.66
  -8   0   4    0.47    0.37
  -8   0   4    0.86    0.56
  -8   0   3    1.58    0.73
  -8   0   3   -0.07    0.22
  -8   0   3    0.11    0.25
  -8   0   3    2.10    0.78
  -8   0   2    1.95    0.82
  -8   0   2    2.41    0.59
  -8   0   2    1.86    0.54
  -8   0   2    1.05    0.57
  -8   0   1   -0.33    0.22
  -8   0   1   -0.21    0.31
  -8   0   0   12.34    1.43
  -8   0  -1    0.04    0.19
  -8   0  -2    0.17    0.22
  -8   0  -3   -0.33    0.38
  -8   0  -4    2.12    0.62
  -8   0  -5    0.08    0.17
  -8   0  -6    2.30    0.69
  -8   0  -7    0.10    0.25
  -8   0  -8    1.78    0.59
  -8   0  -9    0.04    0.10
  -8   1  11    8.18    0.99
  -8   1  10    1.50    0.34
  -8  -1  10    2.04    0.64
  -8   1  10    1.91    0.59
  -8  -1   9    0.32    0.20
  -8   1   9    0.18    0.20
  -8  -1   9    0.53    0.34
  -8   1   9    0.56    0.38
  -8  -1   8    5.40    0.87
  -8   1   8    4.78    0.79
  -8  -1   8    5.34    1.18
  -8   1   8    4.41    1.07
  -8  -1   7    1.32    0.47
  -8   1   7    1.73    0.54
  -8  -1   7    0.88    0.48
  -8   1   7    1.29    0.73
  -8  -1   6    2.96    0.83
  -8   1   6    0.25    0.29
  -8  -1   6    1.41    0.92
  -8   1   6    1.11    0.56
  -8  -1   6    1.47    0.61
  -8  -1   5    2.11    0.58
  -8   1   5    2.62    0.66
  -8  -1   5    2.17    0.88
  -8   1   5    1.74    0.74
  -8   1   5    1.26    0.47
  -8  -1   5    2.71    0.71
  -8  -1   5    1.59    0.80
  -8  -1   4   20.80    2.64
  -8  -1   4   19.51    1.67
  -8   1   4   23.29    1.86
  -8   1   4   19.16    2.15
  -8   1   4   17.76    1.72
  -8  -1   4   20.99    1.90
  -8  -1   4   18.90    2.31
  -8   1   3    7.69    1.48
  -8  -1   3    7.87    1.56
  -8  -1   3    7.54    1.00
  -8   1   3    7.12    0.97
  -8   1   3    7.01    1.07
  -8  -1   3    6.37    1.06
  -8   1   3    7.59    1.36
  -8  -1   3    7.48    1.43
  -8  -1   2    0.61    0.34
  -8  -1   2    0.25    0.22
  -8   1   2    0.67    0.37
  -8   1   2    0.41    0.35
  -8  -1   2    0.20    0.23
  -8  -1   2    0.80    0.51
  -8  -1   1    4.10    1.12
  -8   1   1    4.21    0.71
  -8  -1   1    3.94    0.67
  -8   1   1    3.73    0.77
  -8  -1   1    3.82    0.78
  -8  -1   0    0.55    0.35
  -8   1   0    0.19    0.16
  -8  -1  -1    7.43    1.11
  -8   1  -1   10.53    1.31
  -8  -1  -2   10.04    1.29
  -8   1  -2   10.54    1.36
  -8   1  -3    2.45    0.69
  -8  -1  -3    2.29    0.67
  -8  -1  -4    3.30    0.80
  -8   1  -4    3.71    0.84
  -8  -1  -5   -0.06    0.20
  -8   1  -5    0.09    0.23
  -8  -1  -6    6.49    1.11
  -8   1  -6    5.90    1.06
  -8  -1  -7    3.85    0.85
  -8   1  -7    3.14    0.83
  -8  -1  -8   31.49    2.01
  -8   1  -8   34.18    2.09
  -8  -1  -9    1.89    0.45
  -8   1  -9    1.50    0.38
  -8   2  11    2.58    0.60
  -8  -2  10    0.34    0.35
  -8   2  10    0.32    0.27
  -8  -2   9    0.44    0.24
  -8   2   9    0.26    0.23
  -8  -2   9    0.11    0.32
  -8   2   9    0.12    0.29
  -8  -2   8   -0.01    0.23
  -8   2   8    0.05    0.15
  -8  -2   8   -0.03    0.43
  -8   2   8    0.22    0.25
  -8  -2   7    2.63    0.60
  -8   2   7    3.08    0.68
  -8  -2   7    2.37    0.84
  -8   2   7    3.11    0.91
  -8  -2   6    0.65    0.38
  -8   2   6    2.05    0.69
  -8  -2   6    1.13    0.68
  -8   2   6    1.53    0.87
  -8  -2   6    0.80    0.40
  -8  -2   5    3.33    0.71
  -8   2   5    3.37    0.79
  -8  -2   5    3.32    1.03
  -8   2   5    6.29    1.34
  -8   2   5    3.52    0.78
  -8  -2   5    2.98    0.76
  -8  -2   5    3.34    1.08
  -8  -2   4   20.55    2.68
  -8  -2   4   16.17    1.52
  -8   2   4   19.53    1.67
  -8   2   4   19.39    2.16
  -8   2   4   17.84    1.71
  -8  -2   4   17.44    1.72
  -8  -2   4   18.44    2.28
  -8  -2   3   -0.12    0.35
  -8  -2   3    0.02    0.16
  -8   2   3    0.07    0.14
  -8   2   3   -0.03    0.21
  -8  -2   3    0.10    0.20
  -8  -2   3    0.09    0.43
  -8  -2   2    1.29    0.70
  -8  -2   2    1.31    0.38
  -8   2   2    1.24    0.40
  -8   2   2    1.09    0.44
  -8  -2   2    1.50    0.54
  -8  -2   2    0.69    0.62
  -8  -2   1    5.77    1.26
  -8  -2   1    5.78    0.80
  -8   2   1    5.56    0.84
  -8   2   1    5.27    0.91
  -8  -2   1    4.58    0.85
  -8  -2   1    5.92    1.19
  -8  -2   0    3.25    0.95
  -8  -2   0    3.58    0.56
  -8  -2   0    3.78    0.80
  -8   2   0    3.59    0.80
  -8  -2  -1  106.66    4.08
  -8   2  -1  108.63    4.17
  -8  -2  -2   14.71    1.55
  -8   2  -2   15.14    1.65
  -8   2  -3   -0.05    0.23
  -8  -2  -3   -0.02    0.14
  -8  -2  -4   12.15    1.48
  -8   2  -4   12.37    1.54
  -8  -2  -5    0.17    0.22
  -8   2  -5    1.06    0.46
  -8  -2  -6    6.40    1.07
  -8   2  -6    7.46    1.15
  -8  -2  -7   22.04    1.88
  -8   2  -7   23.13    1.98
  -8  -2  -8    9.53    1.08
  -8   2  -8    8.30    1.06
  -8  -2  -9    0.36    0.22
  -8   2  -9    0.15    0.13
  -8   3  11    0.01    0.25
  -8   3  10    0.90    0.28
  -8   3  10    0.62    0.32
  -8   3   9    0.35    0.24
  -8   3   9    0.00    0.22
  -8  -3   8    0.47    0.25
  -8   3   8    0.22    0.25
  -8  -3   8    0.37    0.42
  -8   3   8    0.40    0.43
  -8  -3   7    0.68    0.29
  -8   3   7    0.86    0.39
  -8  -3   7    0.88    0.58
  -8   3   7    1.08    0.68
  -8  -3   6   37.02    2.30
  -8   3   6   38.40    2.40
  -8  -3   6   43.77    3.22
  -8   3   6   43.69    3.38
  -8  -3   6   37.85    3.34
  -8  -3   5   33.85    2.22
  -8   3   5   33.37    2.27
  -8   3   5   35.74    3.04
  -8   3   5   35.27    2.33
  -8  -3   5   37.26    2.55
  -8  -3   5   34.51    3.20
  -8  -3   4    2.93    1.03
  -8  -3   4    3.58    0.73
  -8   3   4    4.10    0.78
  -8   3   4    4.10    0.98
  -8   3   4    3.06    0.68
  -8  -3   4    3.07    0.75
  -8  -3   4    3.08    0.98
  -8  -3   3    4.57    1.23
  -8  -3   3    3.68    0.68
  -8   3   3    3.80    0.73
  -8   3   3    3.92    0.77
  -8  -3   3    3.84    0.79
  -8  -3   3    4.31    1.13
  -8  -3   2    9.43    1.73
  -8  -3   2    9.02    1.02
  -8   3   2    9.63    1.15
  -8   3   2    8.81    1.18
  -8  -3   2   11.33    1.36
  -8  -3   2   12.12    1.85
  -8  -3   1    5.68    1.29
  -8  -3   1    5.32    0.73
  -8   3   1    6.75    0.93
  -8   3   1    5.88    0.97
  -8  -3   1    4.78    0.85
  -8  -3   1    7.18    1.39
  -8  -3   0    7.80    1.56
  -8  -3   0    8.98    0.89
  -8  -3   0    7.28    1.06
  -8   3   0    6.90    1.07
  -8  -3  -1    6.27    1.02
  -8   3  -1    5.09    0.92
  -8  -3  -2   14.67    1.55
  -8   3  -2   13.71    1.52
  -8  -3  -3    0.89    0.45
  -8   3  -3    1.27    0.54
  -8   3  -4   -0.08    0.33
  -8  -3  -4    0.14    0.26
  -8  -3  -5    0.82    0.31
  -8   3  -5    1.47    0.58
  -8  -3  -6    0.01    0.23
  -8   3  -6    1.34    0.63
  -8  -3  -7    1.37    0.50
  -8   3  -7    0.88    0.43
  -8   3  -8    0.07    0.15
  -8  -3  -8    0.41    0.25
  -8  -3  -9    0.83    0.27
  -8   3  -9    1.11    0.32
  -8   4  11    0.12    0.13
  -8   4  10    0.82    0.27
  -8   4  10    1.42    0.45
  -8   4   9    2.25    0.52
  -8   4   9    1.69    0.57
  -8   4   8    1.24    0.39
  -8   4   8    0.70    0.50
  -8  -4   7   20.48    1.56
  -8   4   7   20.70    1.71
  -8   4   7   23.09    2.51
  -8  -4   6   35.28    2.16
  -8   4   6   38.91    2.44
  -8   4   6   38.77    3.16
  -8  -4   6   40.20    3.45
  -8  -4   5   79.59    3.31
  -8   4   5   76.02    3.36
  -8   4   5   79.23    4.49
  -8  -4   5   79.47    3.70
  -8  -4   5   84.10    4.98
  -8  -4   4    1.36    0.45
  -8   4   4    1.61    0.52
  -8   4   4    1.40    0.66
  -8   4   4    1.58    0.52
  -8  -4   4    1.12    0.50
  -8  -4   4    0.61    0.45
  -8  -4   3    8.27    1.62
  -8  -4   3    6.18    0.89
  -8   4   3    8.27    1.14
  -8   4   3    7.53    1.04
  -8  -4   3    7.40    1.12
  -8  -4   3    8.11    1.58
  -8  -4   2   -0.15    0.59
  -8  -4   2    0.74    0.39
  -8   4   2   -0.25    0.31
  -8   4   2    0.51    0.17
  -8  -4   2    0.24    0.25
  -8  -4   2   -0.19    0.49
  -8  -4   1   21.83    2.62
  -8  -4   1   19.88    1.36
  -8   4   1   22.35    1.67
  -8   4   1   21.23    1.83
  -8  -4   1   19.95    1.77
  -8  -4   1   25.46    2.68
  -8  -4   0    3.09    0.92
  -8  -4   0    3.74    1.10
  -8  -4   0    2.03    0.54
  -8   4   0    2.28    0.60
  -8  -4  -1    2.89    1.00
  -8  -4  -1    2.68    0.68
  -8   4  -1    3.18    0.79
  -8  -4  -2   10.18    1.30
  -8   4  -2   10.24    1.33
  -8  -4  -3    0.99    0.47
  -8   4  -3    1.95    0.60
  -8   4  -4    1.09    0.56
  -8  -4  -4    0.04    0.31
  -8   4  -5    1.86    0.63
  -8  -4  -5    2.67    0.68
  -8  -4  -6    2.62    0.67
  -8   4  -6    2.16    0.62
  -8   4  -7    1.75    0.53
  -8  -4  -7    1.88    0.52
  -8   4  -8    0.70    0.33
  -8  -4  -8    1.17    0.38
  -8  -4  -9    0.78    0.25
  -8   4  -9    0.45    0.19
  -8   5  11    0.68    0.30
  -8   5  10    1.48    0.34
  -8   5  10    1.31    0.44
  -8   5   9    2.53    0.53
  -8   5   9    2.02    0.60
  -8   5   8    4.20    0.70
  -8   5   8    4.47    0.99
  -8   5   7   14.69    1.43
  -8   5   7   15.15    1.95
  -8   5   6    1.67    0.53
  -8   5   6    1.49    0.59
  -8  -5   6    1.99    0.79
  -8  -5   5    1.92    0.59
  -8   5   5    1.52    0.65
  -8  -5   5    2.40    0.72
  -8  -5   5    2.95    1.07
  -8  -5   4    1.49    0.51
  -8   5   4    0.51    0.41
  -8  -5   4    0.43    0.42
  -8  -5   3    6.08    0.86
  -8  -5   3    3.51    0.79
  -8  -5   3    4.36    1.12
  -8  -5   2    1.08    0.65
  -8   5   2    1.43    0.49
  -8  -5   2    0.68    0.35
  -8  -5   2    0.82    0.49
  -8  -5   1    0.55    0.92
  -8  -5   1    0.75    1.00
  -8   5   1    0.18    0.19
  -8  -5   1    0.42    0.40
  -8  -5   0    0.30    0.37
  -8  -5   0    0.59    0.23
  -8  -5  -1    3.49    0.75
  -8   5  -1    4.32    0.81
  -8  -5  -2    2.08    0.54
  -8   5  -2    3.41    0.78
  -8  -5  -3    1.08    0.39
  -8   5  -3    1.18    0.53
  -8  -5  -4   -0.03    0.14
  -8   5  -4    0.80    0.54
  -8   5  -5    2.14    0.70
  -8  -5  -5    1.94    0.59
  -8   5  -6    0.28    0.23
  -8  -5  -6    0.00    0.24
  -8   5  -7    0.33    0.32
  -8  -5  -7    0.07    0.13
  -8  -5  -8    0.57    0.25
  -8   5  -8    0.27    0.11
  -8  -5  -9    0.03    0.11
  -8   6  11    0.40    0.22
  -8   6  10    2.02    0.41
  -8   6  10    2.31    0.59
  -8   6   9    0.01    0.12
  -8   6   9    0.09    0.24
  -8   6   8   -0.11    0.20
  -8   6   8    0.25    0.35
  -8   6   7   -0.03    0.24
  -8  -6   7    0.25    0.54
  -8  -6   6   17.42    2.18
  -8   6   6   19.89    2.22
  -8  -6   6   18.01    2.28
  -8   6   5   -0.10    0.22
  -8  -6   5    0.13    0.16
  -8  -6   5   -0.39    0.47
  -8  -6   4    2.33    0.81
  -8   6   4    2.27    0.76
  -8  -6   4    1.81    0.56
  -8  -6   4    1.38    0.61
  -8  -6   3   -0.04    0.31
  -8  -6   3    0.04    0.25
  -8  -6   2    0.19    0.30
  -8  -6   2    0.16    0.19
  -8  -6   1    5.39    0.92
  -8  -6   0    1.67    0.52
  -8  -6  -1    8.11    1.12
  -8  -6  -2    1.25    0.45
  -8  -6  -3    7.05    1.07
  -8   6  -3    8.29    1.17
  -8  -6  -4    0.02    0.20
  -8   6  -4    0.41    0.33
  -8  -6  -5    0.61    0.34
  -8   6  -5    0.68    0.44
  -8  -6  -6    0.01    0.13
  -8   6  -6   -0.29    0.25
  -8  -6  -7    0.82    0.32
  -8   6  -7    0.67    0.33
  -8  -6  -8    0.26    0.21
  -8   6  -8   -0.15    0.14
  -8   7  10    0.29    0.19
  -8   7  10   -0.11    0.27
  -8   7   9   -0.04    0.13
  -8   7   9   -0.07    0.21
  -8   7   8   -0.11    0.19
  -8   7   8   -0.41    0.41
  -8  -7   7    6.04    1.16
  -8   7   7    8.58    1.40
  -8  -7   7    6.63    1.35
  -8  -7   6    5.63    1.24
  -8   7   6    6.48    1.24
  -8  -7   6    5.52    1.28
  -8  -7   5    0.10    0.36
  -8   7   5    0.50    0.40
  -8  -7   5   -0.02    0.16
  -8  -7   4    3.73    0.97
  -8  -7   4    3.33    0.75
  -8  -7   4    2.60    0.88
  -8  -7   3    0.19    0.23
  -8  -7   3   -0.20    0.46
  -8  -7   2    1.44    0.73
  -8  -7   2    1.77    0.54
  -8  -7   1    0.92    0.41
  -8  -7   0    0.16    0.27
  -8  -7  -1    8.77    1.18
  -8  -7  -2    3.61    0.75
  -8  -7  -3    0.73    0.39
  -8  -7  -4    0.03    0.17
  -8  -7  -5    1.12    0.41
  -8  -7  -6    8.06    1.00
  -8  -7  -7    0.59    0.27
  -8  -7  -8    0.04    0.11
  -8   8  10    3.52    0.49
  -8   8  10    4.51    0.74
  -8   8   9    0.68    0.28
  -8   8   9    0.99    0.40
  -8   8   8    0.06    0.14
  -8   8   8    0.50    0.24
  -8  -8   7    1.89    0.75
  -8   8   7    3.09    0.81
  -8  -8   7    1.45    0.69
  -8  -8   6    0.58    0.57
  -8   8   6    0.37    0.37
  -8  -8   6   -0.01    0.37
  -8  -8   5    9.75    1.57
  -8  -8   5    9.07    1.65
  -8  -8   4    3.59    0.91
  -8  -8   4    3.79    0.78
  -8  -8   4    3.75    1.07
  -8  -8   3    0.19    0.16
  -8  -8   3   -0.30    0.59
  -8  -8   2    0.35    0.17
  -8  -8   1   -0.30    0.23
  -8  -8   1    0.14    0.16
  -8  -8   0    0.23    0.13
  -8  -8   0    0.28    0.20
  -8  -8  -1    2.05    0.58
  -8  -8  -2    0.78    0.39
  -8  -8  -3    0.30    0.19
  -8  -8  -4    0.48    0.33
  -8  -8  -5    1.96    0.54
  -8  -8  -6    1.21    0.37
  -8  -8  -7    3.40    0.54
  -8  -8  -8    0.02    0.09
  -8   9  10    4.03    0.49
  -8   9   9    0.02    0.10
  -8   9   9    0.17    0.21
  -8   9   8    0.19    0.16
  -8   9   8    0.05    0.16
  -8  -9   7    0.49    0.38
  -8  -9   7    0.64    0.48
  -8  -9   6    2.33    0.75
  -8  -9   6    2.61    0.79
  -8  -9   5    2.68    0.80
  -8  -9   5    3.73    1.05
  -8  -9   4    0.17    0.20
  -8  -9   4   -0.71    0.61
  -8  -9   3    0.96    0.49
  -8  -9   3    0.80    0.35
  -8  -9   3    0.26    0.29
  -8  -9   2    1.61    0.50
  -8  -9   1    4.30    0.72
  -8  -9   1    4.46    0.81
  -8  -9   0    2.71    0.59
  -8  -9   0    2.98    0.65
  -8  -9  -1    0.31    0.17
  -8  -9  -1    0.58    0.34
  -8  -9  -2    0.37    0.27
  -8  -9  -3    5.17    0.84
  -8  -9  -4    1.32    0.42
  -8  -9  -5    1.37    0.39
  -8  -9  -6    0.75    0.28
  -8  -9  -7   -0.08    0.11
  -8  -9  -8   -0.03    0.07
  -8  10   9    1.52    0.36
  -8  10   8    6.30    0.81
  -8 -10   7   13.44    1.56
  -8 -10   7   11.82    1.58
  -8 -10   6    0.74    0.47
  -8 -10   6    0.66    0.49
  -8 -10   5    3.96    0.92
  -8 -10   5    4.83    1.13
  -8 -10   4   -0.23    0.35
  -8 -10   4   -0.29    0.20
  -8 -10   4   -0.09    0.28
  -8 -10   3    0.79    0.51
  -8 -10   3    0.53    0.31
  -8 -10   2   10.59    1.23
  -8 -10   1    3.02    0.60
  -8 -10   1    2.49    0.58
  -8 -10   0    4.09    0.72
  -8 -10   0    4.04    0.77
  -8 -10  -1    9.40    1.14
  -8 -10  -1    7.35    1.00
  -8 -10  -2    0.82    0.36
  -8 -10  -2    0.53    0.26
  -8 -10  -3    1.20    0.41
  -8 -10  -3    1.01    0.37
  -8 -10  -4    0.80    0.30
  -8 -10  -4    0.94    0.35
  -8 -10  -5    0.95    0.30
  -8 -10  -6   -0.12    0.19
  -8 -10  -7    1.17    0.27
  -8  11   9    6.21    0.66
  -8  11   8    0.19    0.22
  -8 -11   7    0.58    0.35
  -8 -11   7    0.65    0.47
  -8 -11   6    0.72    0.42
  -8 -11   6    0.61    0.47
  -8 -11   5    0.14    0.36
  -8 -11   5    0.57    0.41
  -8 -11   4    1.61    0.57
  -8 -11   4    1.77    0.72
  -8 -11   3   16.69    1.47
  -8 -11   3   13.50    1.96
  -8 -11   2   28.19    1.67
  -8 -11   2   30.39    1.97
  -8 -11   1   32.71    1.93
  -8 -11   1   34.59    2.09
  -8 -11   0   27.79    1.90
  -8 -11   0   28.71    1.89
  -8 -11  -1    0.34    0.24
  -8 -11  -2    0.45    0.20
  -8 -11  -3    4.16    0.74
  -8 -11  -4    0.75    0.27
  -8 -11  -5    0.11    0.19
  -8 -11  -6    0.17    0.10
  -8 -11  -7   -0.02    0.07
  -8  12   9    0.05    0.10
  -8  12   8    1.90    0.42
  -8 -12   7    0.46    0.32
  -8 -12   7    0.56    0.35
  -8 -12   6    0.07    0.29
  -8 -12   6   -0.09    0.28
  -8 -12   5    0.40    0.37
  -8 -12   5    0.10    0.32
  -8 -12   4   11.07    1.36
  -8 -12   4    8.47    1.40
  -8 -12   3   -0.10    0.27
  -8 -12   2    0.14    0.11
  -8 -12   1    6.21    0.82
  -8 -12   0    6.79    0.90
  -8 -12  -1    0.32    0.25
  -8 -12  -2    0.13    0.22
  -8 -12  -3    4.98    0.77
  -8 -12  -4   -0.13    0.23
  -8 -12  -5    0.24    0.16
  -8 -12  -6    0.09    0.10
  -8  13   8    6.79    0.71
  -8 -13   6    1.47    0.47
  -8 -13   6    0.90    0.37
  -8 -13   5    0.47    0.34
  -8 -13   5    0.14    0.27
  -8 -13   4   12.16    1.60
  -8 -13   3    4.76    1.08
  -8 -13   2    0.02    0.08
  -8 -13   1    2.49    0.50
  -8 -13   0    0.20    0.13
  -8 -13  -1    0.79    0.31
  -8 -13  -2    0.76    0.30
  -8 -13  -3    0.04    0.14
  -8 -13  -4   -0.05    0.11
  -8 -13  -5    0.26    0.15
  -8 -13  -6    0.27    0.14
  -8  14   8    3.49    0.46
  -8 -14   6    3.50    0.73
  -8 -14   5    1.85    0.59
  -8 -14   4    0.25    0.31
  -8 -14   3   -0.12    0.31
  -8 -14   2    0.01    0.24
  -8 -14   2    0.10    0.09
  -8 -14   1    0.85    0.28
  -8 -14   0    1.36    0.36
  -8 -14  -1    0.49    0.28
  -8 -14  -2    0.71    0.30
  -8 -14  -3    1.55    0.41
  -8 -14  -4    0.85    0.31
  -8 -14  -5    0.16    0.13
  -8  15   7    0.02    0.12
  -8 -15   6    0.58    0.30
  -8 -15   5    3.01    0.65
  -8 -15   4    1.07    0.45
  -8 -15   3    0.03    0.18
  -8 -15   2    0.21    0.21
  -8 -15   2    0.32    0.16
  -8 -15   1    0.91    0.25
  -8 -15   0    0.29    0.18
  -8 -15  -1    0.79    0.26
  -8 -15  -2    1.66    0.37
  -8 -15  -3    2.02    0.44
  -8 -15  -4    6.76    0.63
  -8 -15  -5    0.27    0.12
  -8  16   6    3.70    0.47
  -8 -16   5    2.42    0.52
  -8 -16   4    0.47    0.31
  -8 -16   3    1.49    0.46
  -8 -16   2    0.59    0.20
  -8 -16   2    0.45    0.34
  -8 -16   1   -0.15    0.29
  -8 -16   1    0.72    0.23
  -8 -16   0    1.28    0.30
  -8 -16  -1    0.00    0.11
  -8 -16  -2    6.53    0.64
  -8 -16  -3   19.81    1.04
  -8 -16  -4    2.86    0.34
  -8 -17   4    0.89    0.31
  -8 -17   3    0.34    0.24
  -8 -17   2    0.74    0.18
  -8 -17   2    0.39    0.22
  -8 -17   1    0.65    0.18
  -8 -17   1    0.40    0.23
  -8 -17   0    0.90    0.32
  -8 -17   0    2.00    0.33
  -8 -17  -1    1.07    0.24
  -8 -17  -2    0.22    0.11
  -8 -18   2    0.32    0.20
  -8 -18   1   -0.05    0.17
  -8 -18   0    0.42    0.19
  -9   0  10    7.89    0.59
  -9   0   9    1.03    0.32
  -9   0   8   -0.13    0.15
  -9   0   7    0.89    0.43
  -9   0   6    2.75    0.76
  -9   0   5    4.95    0.86
  -9   0   5    4.98    0.93
  -9   0   4    0.21    0.29
  -9   0   4    0.11    0.26
  -9   0   3    0.21    0.23
  -9   0   3    0.09    0.19
  -9   0   2   -0.09    0.17
  -9   0   2    0.30    0.23
  -9   0   1   32.90    1.86
  -9   0   1   35.89    2.45
  -9   0   0    0.35    0.41
  -9   0  -1    9.24    1.28
  -9   0  -2    0.29    0.23
  -9   0  -3    0.49    0.40
  -9   0  -4    0.23    0.25
  -9   0  -5    0.24    0.27
  -9   0  -6    0.44    0.39
  -9   0  -7    0.83    0.35
  -9   0  -8    0.16    0.18
  -9   1  10    3.83    0.43
  -9  -1   9    3.60    0.53
  -9   1   9    1.69    0.40
  -9  -1   8    1.85    0.43
  -9   1   8    2.85    0.54
  -9   1   8    2.96    0.90
  -9  -1   7    3.59    0.65
  -9   1   7    4.51    0.77
  -9  -1   6   11.99    1.25
  -9   1   6   15.04    1.48
  -9  -1   5    0.25    0.39
  -9   1   5    0.64    0.37
  -9   1   5    0.75    0.38
  -9  -1   5    0.95    0.49
  -9  -1   4    1.79    0.53
  -9   1   4    1.84    0.56
  -9   1   4    1.97    0.60
  -9  -1   4    1.98    0.59
  -9  -1   3    0.87    0.34
  -9   1   3    0.77    0.38
  -9   1   3    0.97    0.40
  -9  -1   3    1.46    0.58
  -9  -1   3    1.24    0.73
  -9  -1   2   -0.06    0.15
  -9   1   2    0.13    0.22
  -9   1   2    0.07    0.17
  -9  -1   2   -0.07    0.25
  -9  -1   2   -0.46    0.51
  -9  -1   1    0.16    0.27
  -9   1   1   -0.25    0.26
  -9   1   1    0.02    0.19
  -9  -1   1    0.47    0.46
  -9   1   0   31.21    2.28
  -9  -1   0   31.07    2.28
  -9  -1  -1    4.63    0.90
  -9   1  -1    5.12    0.91
  -9  -1  -2    4.80    0.89
  -9   1  -2    4.85    0.91
  -9  -1  -3    1.72    0.60
  -9   1  -3    1.64    0.55
  -9  -1  -4    0.19    0.29
  -9   1  -4    0.20    0.19
  -9  -1  -5    0.31    0.16
  -9   1  -5    0.94    0.42
  -9  -1  -6    0.58    0.25
  -9   1  -6    1.12    0.42
  -9  -1  -7   12.24    1.19
  -9   1  -7   13.24    1.24
  -9  -1  -8    4.64    0.65
  -9   1  -8    4.26    0.61
  -9   2  10    0.86    0.23
  -9   2   9   -0.03    0.13
  -9   2   9    0.60    0.43
  -9  -2   8    3.99    0.62
  -9   2   8    2.12    0.56
  -9   2   8    3.74    0.93
  -9  -2   7    2.32    0.52
  -9   2   7    2.00    0.53
  -9   2   7    2.55    0.92
  -9  -2   6    9.40    1.12
  -9   2   6   10.39    1.26
  -9  -2   5    2.73    0.61
  -9   2   5    2.88    0.68
  -9   2   5    3.30    0.72
  -9  -2   5    3.08    0.73
  -9  -2   4   -0.49    0.28
  -9   2   4    0.34    0.32
  -9  -2   4   -0.12    0.23
  -9  -2   4    0.10    0.40
  -9  -2   3    0.77    0.28
  -9   2   3    1.61    0.62
  -9   2   3    1.54    0.54
  -9  -2   3    0.85    0.40
  -9  -2   3    1.91    0.90
  -9  -2   2    1.55    0.45
  -9   2   2    1.94    0.53
  -9   2   2    2.33    0.63
  -9  -2   2    1.87    0.57
  -9  -2   2    3.19    1.04
  -9  -2   1    4.57    0.66
  -9   2   1    3.15    0.61
  -9   2   1    2.33    0.66
  -9  -2   1    2.44    0.67
  -9   2   0    7.99    1.16
  -9  -2   0    7.89    1.17
  -9  -2  -1    1.62    0.56
  -9   2  -1    1.12    0.47
  -9  -2  -2    6.67    1.07
  -9   2  -2    7.60    1.13
  -9  -2  -3    0.12    0.16
  -9   2  -3    0.07    0.18
  -9  -2  -4   -0.11    0.21
  -9   2  -4   -0.13    0.20
  -9  -2  -5    0.48    0.28
  -9   2  -5    0.15    0.25
  -9  -2  -6    0.17    0.19
  -9   2  -6   -0.34    0.27
  -9  -2  -7    7.39    0.92
  -9   2  -7    8.12    0.94
  -9  -2  -8    1.17    0.32
  -9   2  -8    0.86    0.28
  -9   3  10    0.38    0.14
  -9   3   9    1.91    0.40
  -9   3   9    2.46    0.71
  -9   3   8    0.56    0.27
  -9   3   8    1.21    0.63
  -9  -3   7    1.89    0.50
  -9   3   7    0.98    0.37
  -9   3   7    1.60    0.68
  -9  -3   6   12.75    1.26
  -9   3   6    9.87    1.21
  -9  -3   5    2.38    0.60
  -9   3   5    2.32    0.66
  -9   3   5    1.62    0.54
  -9  -3   5    2.25    0.67
  -9  -3   5    2.28    0.91
  -9  -3   4   23.55    1.71
  -9   3   4   24.70    1.91
  -9   3   4   25.59    2.01
  -9  -3   4   23.80    2.02
  -9  -3   4   26.18    2.76
  -9  -3   3   19.60    1.52
  -9   3   3   21.41    1.74
  -9   3   3   21.24    1.85
  -9  -3   3   21.33    1.91
  -9  -3   3   23.98    2.66
  -9   3   2    0.40    0.29
  -9   3   2   -0.13    0.30
  -9  -3   2    0.07    0.29
  -9  -3   2   -0.16    0.52
  -9   3   1    1.43    0.50
  -9  -3   1    1.25    0.44
  -9  -3   1    1.47    0.65
  -9   3   0    0.17    0.14
  -9  -3   0    0.53    0.42
  -9  -3  -1    5.03    0.98
  -9   3  -1    6.02    1.01
  -9  -3  -2    0.57    0.34
  -9   3  -2    1.02    0.51
  -9  -3  -3    3.73    0.82
  -9   3  -3    3.90    0.82
  -9  -3  -4    0.94    0.38
  -9   3  -4    0.48    0.35
  -9  -3  -5    2.03    0.58
  -9   3  -5    1.51    0.50
  -9  -3  -6    0.37    0.33
  -9   3  -6    0.17    0.18
  -9  -3  -7    0.13    0.21
  -9   3  -7    0.13    0.12
  -9  -3  -8    0.28    0.16
  -9   3  -8    0.03    0.09
  -9   4  10    0.10    0.08
  -9   4   9    1.57    0.37
  -9   4   9    1.86    0.68
  -9   4   8    7.63    0.91
  -9   4   8   10.10    1.43
  -9   4   7    1.85    0.53
  -9   4   7    3.05    0.90
  -9  -4   6   15.79    1.33
  -9   4   6   11.13    1.24
  -9  -4   5   20.55    1.55
  -9   4   5   20.98    1.77
  -9  -4   5   21.39    1.85
  -9  -4   5   20.44    2.42
  -9  -4   4   22.12    1.60
  -9   4   4   20.63    1.76
  -9   4   4   20.55    1.72
  -9  -4   4   20.40    1.82
  -9  -4   4   23.10    2.59
  -9  -4   3   15.58    1.33
  -9   4   3   12.38    1.35
  -9   4   3   11.70    1.32
  -9  -4   3   12.63    1.46
  -9  -4   3   13.16    1.98
  -9   4   2    0.24    0.21
  -9   4   2   -0.09    0.17
  -9  -4   2    0.17    0.20
  -9  -4   2    0.42    0.39
  -9   4   1    0.59    0.31
  -9  -4   1    0.61    0.33
  -9  -4   1    0.61    0.56
  -9   4   0    0.10    0.17
  -9  -4   0    0.08    0.16
  -9  -4  -1   -0.06    0.18
  -9   4  -1    0.14    0.25
  -9  -4  -2    1.45    0.53
  -9   4  -2    1.79    0.55
  -9  -4  -3    0.41    0.31
  -9   4  -3    0.44    0.34
  -9  -4  -4    0.14    0.25
  -9   4  -4    0.08    0.17
  -9  -4  -5    1.30    0.48
  -9   4  -5    0.84    0.36
  -9  -4  -6    0.24    0.20
  -9   4  -6    0.26    0.20
  -9  -4  -7   -0.15    0.16
  -9   4  -7   -0.07    0.17
  -9  -4  -8    1.44    0.30
  -9   5  10   -0.07    0.12
  -9   5   9    1.61    0.40
  -9   5   8    6.02    0.84
  -9   5   8    8.01    1.28
  -9   5   7    7.22    0.93
  -9   5   7    8.91    1.46
  -9   5   6    3.48    0.69
  -9  -5   6    3.95    1.02
  -9   5   5   18.31    1.64
  -9  -5   5   20.29    1.78
  -9  -5   5   19.13    2.35
  -9   5   4    2.95    0.67
  -9  -5   4    3.38    0.75
  -9  -5   3    0.10    0.24
  -9  -5   3    0.40    0.30
  -9   5   2   11.14    1.22
  -9  -5   2   10.15    1.28
  -9  -5   2   13.65    1.96
  -9  -5   1   -0.01    0.19
  -9  -5   1    0.51    0.37
  -9   5   0    3.36    0.71
  -9  -5   0    3.07    0.72
  -9  -5   0    4.03    0.96
  -9   5  -1    0.43    0.22
  -9  -5  -1    0.59    0.33
  -9  -5  -2    0.43    0.47
  -9   5  -2    0.12    0.25
  -9  -5  -3    1.89    0.60
  -9   5  -3    1.38    0.48
  -9  -5  -4    0.25    0.26
  -9   5  -4    0.38    0.28
  -9  -5  -5    0.34    0.26
  -9   5  -5    0.03    0.22
  -9  -5  -6   -0.16    0.19
  -9   5  -6    0.05    0.17
  -9  -5  -7    0.18    0.14
  -9   5  -7    0.43    0.19
  -9   6  10    0.43    0.14
  -9   6   9    0.80    0.26
  -9   6   8   -0.02    0.15
  -9   6   7    3.04    0.65
  -9   6   6    0.08    0.17
  -9  -6   6    0.68    0.49
  -9   6   5   11.34    1.27
  -9  -6   5   12.03    1.36
  -9  -6   5   11.93    1.83
  -9   6   4    0.98    0.37
  -9  -6   4    1.56    0.50
  -9  -6   4    0.72    0.49
  -9   6   3    0.22    0.20
  -9  -6   3    0.38    0.18
  -9  -6   3    0.10    0.38
  -9   6   2    0.58    0.30
  -9  -6   2    0.39    0.28
  -9  -6   2    0.25    0.47
  -9  -6   1    0.22    0.22
  -9  -6   1   -0.83    0.52
  -9  -6   0   -0.04    0.18
  -9  -6   0    0.12    0.24
  -9  -6   0   -0.22    0.50
  -9  -6  -1    0.36    0.27
  -9  -6  -2   -0.10    0.14
  -9  -6  -3    0.26    0.25
  -9  -6  -4    0.02    0.14
  -9   6  -4    0.48    0.24
  -9  -6  -5    0.45    0.34
  -9   6  -5    0.52    0.19
  -9  -6  -6    0.91    0.33
  -9   6  -6    0.68    0.28
  -9  -6  -7    0.76    0.26
  -9   7   9    0.19    0.17
  -9   7   8    0.88    0.33
  -9   7   7    0.01    0.19
  -9   7   6    3.78    0.70
  -9  -7   6    2.62    0.79
  -9   7   5    1.70    0.50
  -9  -7   5    0.92    0.62
  -9   7   4    0.22    0.17
  -9  -7   4    0.59    0.33
  -9  -7   4    0.25    0.46
  -9   7   3    0.52    0.28
  -9  -7   3    0.65    0.32
  -9  -7   3    0.10    0.31
  -9   7   2    0.01    0.19
  -9  -7   2   -0.18    0.30
  -9  -7   2    0.13    0.22
  -9  -7   1    0.25    0.26
  -9  -7   1    0.20    0.34
  -9  -7   0    3.07    0.60
  -9  -7   0    4.18    0.82
  -9  -7   0    1.90    0.67
  -9  -7  -1    0.73    0.31
  -9  -7  -1    0.99    0.42
  -9  -7  -1    0.94    0.54
  -9  -7  -2    3.97    0.76
  -9  -7  -3    5.45    0.88
  -9  -7  -4    0.75    0.34
  -9  -7  -5    0.44    0.24
  -9  -7  -6    0.72    0.26
  -9  -7  -7    0.02    0.07
  -9  -7  -7    0.28    0.15
  -9   8   9    5.97    0.65
  -9   8   8    0.43    0.23
  -9   8   7    0.64    0.33
  -9   8   6    1.73    0.45
  -9  -8   6    1.10    0.53
  -9   8   5    1.89    0.50
  -9  -8   5    2.35    0.80
  -9   8   4    0.55    0.21
  -9  -8   4    1.45    0.51
  -9  -8   4    1.47    0.60
  -9   8   3   -0.90    0.38
  -9  -8   3   -0.07    0.24
  -9  -8   3   -0.41    0.46
  -9   8   2    1.31    0.45
  -9  -8   2    1.78    0.53
  -9  -8   2    2.09    0.77
  -9  -8   1    8.17    1.07
  -9  -8   1    7.52    1.37
  -9  -8   0    0.03    0.50
  -9  -8   0   -0.34    0.26
  -9  -8   0   -0.27    0.26
  -9  -8  -1    1.73    0.75
  -9  -8  -1    1.03    0.36
  -9  -8  -1    1.00    0.35
  -9  -8  -2    0.09    0.18
  -9  -8  -2    0.21    0.18
  -9  -8  -3    2.91    0.61
  -9  -8  -4    0.15    0.16
  -9  -8  -5    1.63    0.38
  -9  -8  -6    0.27    0.15
  -9  -8  -6    0.59    0.21
  -9  -8  -7    2.19    0.35
  -9   9   9    4.92    0.56
  -9   9   8    1.56    0.38
  -9   9   7    0.77    0.31
  -9   9   6    0.42    0.27
  -9  -9   6    1.06    0.56
  -9   9   5    0.83    0.34
  -9  -9   5    0.64    0.37
  -9   9   4    2.03    0.51
  -9  -9   4    2.93    0.61
  -9  -9   4    2.35    0.79
  -9   9   3   -0.26    0.26
  -9  -9   3    0.36    0.30
  -9  -9   3   -0.21    0.27
  -9   9   2    0.85    0.35
  -9  -9   2    0.31    0.28
  -9  -9   2    0.06    0.51
  -9  -9   1    0.21    0.22
  -9  -9   1   -0.06    0.30
  -9  -9   0    0.33    0.26
  -9  -9   0    0.04    0.16
  -9  -9  -1    1.50    0.53
  -9  -9  -1    1.57    0.41
  -9  -9  -1    1.94    0.52
  -9  -9  -2   -0.06    0.34
  -9  -9  -2    0.13    0.15
  -9  -9  -2   -0.22    0.26
  -9  -9  -3    0.30    0.17
  -9  -9  -3    0.27    0.20
  -9  -9  -4   -0.23    0.21
  -9  -9  -4   -0.15    0.19
  -9  -9  -5   -0.11    0.17
  -9  -9  -5   -0.26    0.22
  -9  -9  -6    0.00    0.11
  -9  10   9    0.77    0.21
  -9  10   8    0.75    0.25
  -9  10   7   15.32    1.23
  -9  10   6    1.28    0.38
  -9 -10   6    0.81    0.47
  -9  10   5    0.41    0.27
  -9 -10   5   -0.05    0.29
  -9  10   4    7.70    0.97
  -9 -10   4    5.66    1.15
  -9  10   3    0.83    0.34
  -9 -10   3    1.22    0.37
  -9 -10   3    0.19    0.25
  -9 -10   2    6.12    0.87
  -9 -10   2    4.20    1.00
  -9 -10   1   14.72    1.14
  -9 -10   1   13.47    1.28
  -9 -10   0   19.11    1.39
  -9 -10   0   18.41    1.50
  -9 -10  -1    4.76    1.02
  -9 -10  -1    7.37    0.90
  -9 -10  -1    6.27    0.84
  -9 -10  -2    1.90    0.57
  -9 -10  -2    2.52    0.53
  -9 -10  -2    2.62    0.52
  -9 -10  -3    0.04    0.12
  -9 -10  -3    0.01    0.11
  -9 -10  -4    0.15    0.12
  -9 -10  -5   -0.17    0.16
  -9 -10  -6    0.03    0.06
  -9  11   8    6.43    0.66
  -9  11   7    2.87    0.49
  -9  11   6    0.92    0.33
  -9 -11   6    0.56    0.38
  -9  11   5    1.29    0.41
  -9 -11   5    0.61    0.39
  -9  11   4   -0.12    0.12
  -9 -11   4   -0.01    0.21
  -9  11   3    1.87    0.50
  -9 -11   3    1.06    0.47
  -9 -11   2    0.21    0.11
  -9 -11   2    0.73    0.44
  -9 -11   1   10.79    0.94
  -9 -11   1   11.69    1.12
  -9 -11   0   22.26    1.43
  -9 -11   0   24.54    1.59
  -9 -11  -1   10.18    1.01
  -9 -11  -1   10.70    1.01
  -9 -11  -2    1.16    0.46
  -9 -11  -2    1.63    0.42
  -9 -11  -3    0.91    0.34
  -9 -11  -4   -0.12    0.18
  -9 -11  -5    0.01    0.08
  -9 -11  -6    0.13    0.09
  -9  12   8    3.90    0.47
  -9  12   7    1.26    0.31
  -9  12   6    0.68    0.27
  -9 -12   6    0.39    0.32
  -9  12   5    0.46    0.22
  -9 -12   5    0.05    0.26
  -9  12   4   10.09    1.03
  -9 -12   4    6.95    1.16
  -9  12   3    9.11    0.97
  -9 -12   3    6.37    1.12
  -9 -12   2    2.93    0.75
  -9 -12   1    3.00    0.47
  -9 -12   1    1.22    0.57
  -9 -12   0   -0.08    0.23
  -9 -12   0    0.25    0.17
  -9 -12  -1    0.18    0.23
  -9 -12  -1    0.22    0.19
  -9 -12  -2   -0.06    0.30
  -9 -12  -2    1.19    0.34
  -9 -12  -3    0.01    0.11
  -9 -12  -4    0.50    0.21
  -9 -12  -5    0.53    0.19
  -9  13   7    8.96    0.75
  -9  13   6    0.55    0.23
  -9 -13   6    0.38    0.24
  -9  13   5    0.11    0.16
  -9 -13   5    0.24    0.23
  -9  13   4    0.75    0.27
  -9 -13   4    0.73    0.39
  -9  13   3    2.76    0.50
  -9 -13   3    1.30    0.51
  -9 -13   2    1.90    0.60
  -9 -13   1    0.57    0.21
  -9 -13   1    0.73    0.41
  -9 -13   0    0.82    0.38
  -9 -13   0    1.29    0.32
  -9 -13  -1    0.45    0.35
  -9 -13  -1    0.77    0.26
  -9 -13  -2   -0.15    0.36
  -9 -13  -2    0.06    0.13
  -9 -13  -3    1.02    0.27
  -9 -13  -4    0.43    0.17
  -9  14   6    1.09    0.25
  -9  14   5    0.96    0.27
  -9 -14   5    0.54    0.28
  -9  14   4    0.42    0.19
  -9 -14   4    0.39    0.30
  -9 -14   3    0.31    0.27
  -9 -14   2   -0.08    0.23
  -9 -14   1    0.17    0.13
  -9 -14   1   -0.04    0.25
  -9 -14   0    0.17    0.13
  -9 -14   0    0.12    0.18
  -9 -14  -1   -0.05    0.09
  -9 -14  -1   -0.18    0.22
  -9 -14  -2    0.43    0.15
  -9 -14  -2    0.14    0.21
  -9 -14  -3    0.51    0.16
  -9 -15   4    0.39    0.28
  -9 -15   3    0.10    0.23
  -9 -15   2    0.10    0.14
  -9 -15   1    0.74    0.18
  -9 -15   1    0.33    0.27
  -9 -15   0    0.05    0.08
  -9 -15   0    0.15    0.22
  -9 -15  -1    1.20    0.24
  -9 -15  -1   -0.06    0.14
  -9 -15  -2    0.46    0.16
  -9 -16   3    0.12    0.18
  -9 -16   2    1.13    0.34
  -9 -16   1    2.11    0.48
  -9 -16   0    0.53    0.24
 -10   0   9    9.04    0.65
 -10   0   8    5.30    0.60
 -10   0   7    0.10    0.14
 -10   0   6    5.84    0.78
 -10   0   5   -0.08    0.21
 -10   0   5    0.10    0.20
 -10   0   4    1.31    0.38
 -10   0   4    2.00    0.55
 -10   0   3   -0.32    0.23
 -10   0   3    0.04    0.16
 -10   0   2    1.08    0.39
 -10   0   2   -0.14    0.24
 -10   0   1   -0.05    0.21
 -10   0   0    1.34    0.47
 -10   0  -1   -0.24    0.18
 -10   0  -2    0.17    0.27
 -10   0  -3   -0.17    0.18
 -10   0  -4    0.27    0.24
 -10   0  -5   -0.15    0.17
 -10   0  -6    0.03    0.13
 -10   0  -7   -0.07    0.10
 -10   1   9    4.30    0.46
 -10  -1   8    8.04    0.71
 -10   1   8    0.34    0.20
 -10  -1   7    1.37    0.40
 -10   1   7    0.23    0.22
 -10  -1   6    4.79    0.71
 -10   1   6    3.26    0.63
 -10  -1   5   -0.16    0.21
 -10   1   5    0.03    0.15
 -10  -1   5    0.25    0.22
 -10  -1   4    0.52    0.31
 -10   1   4    0.63    0.55
 -10   1   4    0.24    0.26
 -10  -1   4    0.26    0.23
 -10  -1   3    3.25    0.61
 -10   1   3    1.51    0.46
 -10   1   3    2.98    0.71
 -10  -1   3    2.85    0.68
 -10   1   2    0.33    0.24
 -10   1   2    1.28    0.44
 -10  -1   2    1.27    0.45
 -10   1   1    0.01    0.23
 -10  -1   1    0.15    0.15
 -10   1   0    0.91    0.40
 -10  -1   0    1.07    0.43
 -10   1  -1    3.19    0.71
 -10  -1  -1    3.44    0.73
 -10   1  -2    5.13    0.89
 -10  -1  -2    4.05    0.81
 -10  -1  -3    2.81    0.66
 -10   1  -3    2.20    0.59
 -10  -1  -4   -0.03    0.22
 -10   1  -4    0.01    0.13
 -10  -1  -5    0.06    0.20
 -10   1  -5   -0.01    0.20
 -10  -1  -6   -0.09    0.15
 -10   1  -6   -0.04    0.17
 -10  -1  -7    0.37    0.17
 -10   2   9    1.79    0.31
 -10  -2   8   17.40    0.99
 -10   2   8    0.49    0.19
 -10  -2   7    7.55    0.81
 -10   2   7    0.02    0.17
 -10  -2   6    4.95    0.71
 -10   2   6    0.53    0.27
 -10   2   5    1.45    0.42
 -10  -2   5    2.37    0.57
 -10  -2   4   10.28    1.04
 -10   2   4    9.94    1.13
 -10   2   4   11.00    1.25
 -10  -2   4   10.50    1.24
 -10   2   3    7.04    0.93
 -10   2   3    5.58    0.93
 -10  -2   3    5.74    0.95
 -10   2   2    0.41    0.36
 -10   2   2    0.10    0.17
 -10  -2   2    0.11    0.21
 -10  -2   2    0.77    0.42
 -10   2   1    3.49    0.76
 -10  -2   1    3.60    0.72
 -10   2   0    0.81    0.31
 -10  -2   0    0.68    0.29
 -10   2  -1    2.35    0.63
 -10  -2  -1    2.62    0.68
 -10   2  -2    0.07    0.21
 -10  -2  -2    0.04    0.28
 -10  -2  -3    7.65    1.06
 -10   2  -3    6.68    0.96
 -10  -2  -4    1.49    0.43
 -10   2  -4    1.81    0.48
 -10  -2  -5    0.42    0.22
 -10   2  -5    0.66    0.31
 -10  -2  -6    0.15    0.16
 -10   2  -6    0.35    0.20
 -10  -2  -7    0.14    0.14
 -10   3   9    1.43    0.29
 -10   3   8    0.42    0.19
 -10  -3   7   22.57    1.23
 -10   3   7    0.99    0.34
 -10  -3   6   16.98    1.19
 -10   3   6    0.01    0.18
 -10   3   5    1.29    0.54
 -10  -3   5    0.72    0.37
 -10   3   4   11.87    1.26
 -10   3   4   13.81    1.38
 -10  -3   4   13.39    1.41
 -10   3   3   15.40    1.40
 -10   3   3   16.16    1.54
 -10  -3   3   16.06    1.57
 -10  -3   3   16.17    2.05
 -10   3   2   23.21    1.59
 -10   3   2   24.54    1.92
 -10  -3   2   23.24    1.87
 -10  -3   2   22.53    2.28
 -10   3   1    5.62    0.93
 -10  -3   1    6.30    0.97
 -10   3   0    0.30    0.25
 -10  -3   0   -0.13    0.40
 -10   3  -1    1.65    0.56
 -10  -3  -1    1.69    0.56
 -10   3  -2    0.85    0.38
 -10  -3  -2    0.68    0.36
 -10   3  -3    0.22    0.21
 -10  -3  -3    0.50    0.26
 -10  -3  -4    1.07    0.39
 -10   3  -4    1.03    0.37
 -10  -3  -5    1.11    0.36
 -10   3  -5    0.95    0.30
 -10   3  -6   -0.27    0.20
 -10  -3  -6   -0.06    0.12
 -10   4   9    1.24    0.25
 -10   4   8    0.27    0.18
 -10   4   7    1.01    0.33
 -10   4   6    1.82    0.44
 -10   4   5   27.90    1.87
 -10   4   4   30.21    1.98
 -10  -4   4   36.13    2.26
 -10  -4   4   32.81    2.82
 -10   4   3   35.32    2.10
 -10   4   3   41.61    2.33
 -10  -4   3   38.83    2.38
 -10  -4   3   35.34    2.93
 -10   4   2    1.42    0.41
 -10   4   2    0.98    0.35
 -10  -4   2    1.15    0.46
 -10  -4   2    2.02    0.80
 -10   4   1   -0.23    0.26
 -10  -4   1   -0.01    0.16
 -10   4   0    2.02    0.54
 -10  -4   0    1.58    0.49
 -10   4  -1    6.65    0.99
 -10  -4  -1    6.83    1.00
 -10   4  -2    1.39    0.45
 -10  -4  -2    1.39    0.46
 -10   4  -3    0.40    0.28
 -10  -4  -3    0.90    0.36
 -10   4  -4    0.54    0.31
 -10  -4  -4    0.66    0.30
 -10   4  -5    1.12    0.34
 -10  -4  -5    1.02    0.35
 -10   4  -6    0.49    0.18
 -10  -4  -6    0.88    0.26
 -10   5   9   -0.05    0.09
 -10   5   8    0.53    0.20
 -10   5   7    1.76    0.45
 -10   5   6    2.61    0.58
 -10   5   5    5.52    0.82
 -10   5   4   11.29    1.21
 -10  -5   4   13.81    1.39
 -10  -5   4   11.45    1.69
 -10   5   3    0.77    0.34
 -10  -5   3    1.38    0.50
 -10  -5   3    1.68    0.65
 -10   5   2    0.04    0.17
 -10  -5   2   -0.14    0.31
 -10  -5   1    0.23    0.24
 -10  -5   1    0.25    0.26
 -10  -5   0    0.36    0.19
 -10   5  -1    1.95    0.51
 -10  -5  -1    1.94    0.56
 -10   5  -2    0.00    0.11
 -10  -5  -2    0.02    0.16
 -10   5  -3   -0.01    0.12
 -10  -5  -3    0.31    0.28
 -10   5  -4    3.85    0.64
 -10  -5  -4    4.14    0.68
 -10   5  -5    0.09    0.10
 -10  -5  -5    0.26    0.19
 -10  -5  -6    0.05    0.06
 -10  -5  -6    0.25    0.14
 -10   6   9    0.70    0.18
 -10   6   8    0.60    0.22
 -10   6   7    0.46    0.25
 -10   6   6    0.33    0.24
 -10   6   5    0.24    0.25
 -10  -6   5    0.47    0.53
 -10   6   4    5.93    0.86
 -10  -6   4    7.20    0.96
 -10  -6   4    5.27    1.15
 -10   6   3    1.07    0.32
 -10  -6   3    1.10    0.44
 -10  -6   3    1.19    0.55
 -10  -6   2    3.59    0.69
 -10  -6   2    3.60    0.90
 -10  -6   1    0.05    0.24
 -10  -6   1   -0.21    0.35
 -10  -6   0    0.37    0.25
 -10  -6  -1    0.81    0.29
 -10  -6  -1    0.29    0.25
 -10  -6  -2   -0.01    0.15
 -10  -6  -2   -0.10    0.18
 -10  -6  -3    0.38    0.26
 -10  -6  -4    0.18    0.19
 -10  -6  -5    0.75    0.23
 -10  -6  -5    1.28    0.33
 -10  -6  -6    1.71    0.31
 -10  -6  -6    1.99    0.33
 -10   7   8   -0.03    0.12
 -10   7   7   -0.06    0.16
 -10   7   6   -0.02    0.11
 -10   7   5    0.06    0.19
 -10  -7   5    0.34    0.40
 -10   7   4    0.91    0.37
 -10  -7   4    0.66    0.32
 -10  -7   4    0.26    0.26
 -10   7   3    0.09    0.14
 -10  -7   3    0.13    0.19
 -10  -7   3    0.11    0.30
 -10  -7   2    0.03    0.13
 -10  -7   2   -0.05    0.23
 -10  -7   1    0.07    0.16
 -10  -7   1   -0.01    0.28
 -10  -7   0    0.05    0.23
 -10  -7   0   -0.18    0.25
 -10  -7  -1    1.15    0.31
 -10  -7  -1    1.17    0.36
 -10  -7  -2    1.00    0.30
 -10  -7  -2    1.18    0.39
 -10  -7  -3    0.85    0.28
 -10  -7  -3    0.98    0.33
 -10  -7  -4    1.90    0.40
 -10  -7  -4    2.57    0.48
 -10  -7  -5    0.40    0.18
 -10  -7  -5    0.65    0.22
 -10   8   8    3.96    0.49
 -10   8   7    0.23    0.18
 -10   8   6   -0.02    0.10
 -10   8   5    0.06    0.13
 -10  -8   5    0.31    0.42
 -10   8   4   -0.04    0.13
 -10  -8   4   -0.03    0.30
 -10   8   3    0.15    0.16
 -10  -8   3    0.27    0.22
 -10  -8   3   -0.04    0.19
 -10  -8   2    0.57    0.27
 -10  -8   2    0.26    0.22
 -10  -8   1    0.08    0.17
 -10  -8   1   -0.09    0.23
 -10  -8   0   -0.17    0.19
 -10  -8   0    0.06    0.21
 -10  -8  -1    0.24    0.13
 -10  -8  -1    0.21    0.15
 -10  -8  -2    1.47    0.37
 -10  -8  -2    0.77    0.25
 -10  -8  -3    4.05    0.58
 -10  -8  -3    4.93    0.67
 -10  -8  -4    0.57    0.21
 -10  -8  -4    0.56    0.23
 -10  -8  -5    0.00    0.09
 -10   9   8    9.02    0.68
 -10   9   7   -0.28    0.15
 -10   9   6    0.23    0.19
 -10   9   5    0.99    0.34
 -10  -9   5    1.52    0.59
 -10   9   4    0.27    0.23
 -10  -9   4    0.15    0.35
 -10   9   3    0.77    0.24
 -10  -9   3    0.64    0.28
 -10  -9   3    0.40    0.39
 -10  -9   2   -0.06    0.18
 -10  -9   2   -0.15    0.33
 -10  -9   1    0.46    0.27
 -10  -9   1    0.52    0.40
 -10  -9   0    0.52    0.23
 -10  -9   0    0.58    0.42
 -10  -9  -1    1.81    0.37
 -10  -9  -1    1.55    0.40
 -10  -9  -2    1.22    0.32
 -10  -9  -2    0.58    0.21
 -10  -9  -3    0.35    0.17
 -10  -9  -3    0.19    0.12
 -10  -9  -4   -0.12    0.12
 -10  -9  -4    0.00    0.08
 -10  -9  -5    0.17    0.10
 -10  10   7   -0.02    0.13
 -10  10   6    0.63    0.22
 -10  10   5    0.65    0.26
 -10 -10   5    0.82    0.36
 -10  10   4    1.20    0.34
 -10 -10   4    0.82    0.38
 -10  10   3    0.61    0.27
 -10 -10   3    0.01    0.22
 -10 -10   2    0.15    0.14
 -10 -10   2    0.26    0.28
 -10 -10   1   10.42    0.97
 -10 -10   1    6.28    1.07
 -10 -10   0   11.08    0.98
 -10 -10   0    7.30    1.10
 -10 -10  -1    9.91    0.80
 -10 -10  -1   10.64    0.94
 -10 -10  -2    8.22    0.74
 -10 -10  -2    8.85    0.79
 -10 -10  -3    0.88    0.24
 -10 -10  -4    0.22    0.14
 -10  11   6    0.05    0.09
 -10  11   5    0.39    0.15
 -10 -11   5    0.51    0.27
 -10  11   4    0.96    0.29
 -10 -11   4    0.39    0.28
 -10 -11   3    0.61    0.43
 -10 -11   2    0.15    0.23
 -10 -11   1    8.15    0.76
 -10 -11   1    4.29    0.82
 -10 -11   0    7.65    0.71
 -10 -11   0    3.91    0.77
 -10 -11  -1    9.94    0.74
 -10 -11  -1    5.30    0.83
 -10 -11  -2    8.38    0.68
 -10 -11  -3    0.18    0.11
 -10 -12   4   -0.12    0.17
 -10 -12   3    1.17    0.39
 -10 -12   2    2.20    0.58
 -10 -12   1    0.18    0.20
 -10 -12   0    0.33    0.29
 -10 -12  -1    0.61    0.17
 -10 -12  -1    0.08    0.23
 -10 -12  -2    2.24    0.31
 -10 -13   4    0.45    0.29
 -10 -13   3    1.18    0.39
 -10 -13   2    1.05    0.39
 -10 -13   1    2.37    0.53
 -10 -13   0    0.23    0.24
 -10 -14   2    0.17    0.19
 -11   0   7   12.14    0.78
 -11   0   6    8.93    0.74
 -11   0   5    8.88    0.80
 -11   0   4   10.48    0.87
 -11   0   4    0.06    0.16
 -11   0   3   17.22    1.10
 -11   0   3    5.58    0.82
 -11   0   2    0.19    0.23
 -11   0   1    0.30    0.21
 -11   0   0    0.22    0.19
 -11   0  -1    0.80    0.33
 -11   0  -2   -0.01    0.12
 -11   0  -3    0.05    0.15
 -11   0  -4    0.07    0.09
 -11   0  -5   -0.12    0.13
 -11   1   7    6.92    0.61
 -11  -1   6   16.66    0.99
 -11   1   6    2.94    0.47
 -11  -1   5   16.09    1.02
 -11   1   5    3.18    0.52
 -11   1   4    3.77    0.54
 -11  -1   4    0.27    0.24
 -11   1   3    2.94    0.59
 -11  -1   3    3.16    0.62
 -11   1   2    1.85    0.47
 -11  -1   2    1.39    0.45
 -11   1   1    1.37    0.45
 -11  -1   1    1.22    0.40
 -11   1   0    0.44    0.23
 -11  -1   0    0.13    0.13
 -11   1  -1    0.15    0.14
 -11  -1  -1   -0.06    0.13
 -11   1  -2    2.77    0.56
 -11  -1  -2    3.12    0.58
 -11   1  -3    0.32    0.22
 -11  -1  -3    0.36    0.23
 -11   1  -4    0.33    0.21
 -11  -1  -4    0.32    0.20
 -11  -1  -5    0.35    0.14
 -11   2   8    6.62    0.51
 -11   2   7    2.85    0.41
 -11   2   6    0.80    0.27
 -11   2   5    2.13    0.42
 -11   2   4    2.31    0.45
 -11  -2   4    1.91    0.43
 -11  -2   3    4.73    0.76
 -11   2   3    4.20    0.67
 -11   2   2    3.95    0.69
 -11  -2   2    3.18    0.61
 -11   2   1    1.67    0.46
 -11  -2   1    1.94    0.48
 -11   2   0    0.56    0.28
 -11  -2   0    0.37    0.23
 -11   2  -1    1.36    0.38
 -11  -2  -1    0.82    0.31
 -11   2  -2    2.75    0.54
 -11  -2  -2    1.79    0.44
 -11   2  -3    7.29    0.83
 -11  -2  -3    7.59    0.87
 -11   2  -4    1.30    0.32
 -11  -2  -4    1.56    0.36
 -11  -2  -5    0.64    0.22
 -11   3   8    4.68    0.42
 -11   3   7    1.17    0.27
 -11   3   6    0.59    0.22
 -11   3   5    2.43    0.43
 -11   3   4    1.08    0.34
 -11  -3   4    0.41    0.28
 -11   3   3    2.58    0.47
 -11   3   3    1.25    0.41
 -11  -3   3    1.50    0.46
 -11   3   2    8.10    0.94
 -11  -3   2    7.81    0.96
 -11   3   1    7.04    0.89
 -11  -3   1    7.16    0.93
 -11   3   0    0.24    0.18
 -11  -3   0   -0.33    0.28
 -11   3  -1    0.58    0.26
 -11  -3  -1    0.43    0.24
 -11   3  -2    0.42    0.22
 -11  -3  -2   -0.16    0.17
 -11   3  -3    0.62    0.22
 -11  -3  -3    0.66    0.28
 -11   3  -4    0.77    0.27
 -11  -3  -4    0.07    0.14
 -11   4   7    0.25    0.14
 -11   4   6    0.16    0.13
 -11   4   5    0.16    0.14
 -11   4   4   18.64    1.24
 -11  -4   4   21.66    1.48
 -11   4   3    9.64    0.83
 -11  -4   3   10.59    1.07
 -11  -4   2   13.02    1.22
 -11  -4   1    3.61    0.65
 -11   4   0    0.37    0.19
 -11  -4   0    0.24    0.20
 -11   4  -1    1.06    0.34
 -11  -4  -1    0.29    0.15
 -11   4  -2    0.41    0.22
 -11  -4  -2    0.25    0.15
 -11   4  -3    0.55    0.21
 -11  -4  -3    0.36    0.22
 -11  -4  -4    1.18    0.30
 -11   5   7    3.32    0.42
 -11   5   6    7.42    0.70
 -11   5   5    0.76    0.26
 -11   5   4    2.60    0.45
 -11   5   3    8.48    0.76
 -11  -5   3    9.88    0.99
 -11  -5   2    2.88    0.56
 -11  -5   1    1.83    0.46
 -11  -5   0    1.03    0.34
 -11  -5  -1    0.98    0.32
 -11  -5  -2   -0.18    0.21
 -11  -5  -3    0.51    0.24
 -11  -5  -4   -0.14    0.13
 -11   6   7    0.00    0.07
 -11   6   6    0.54    0.19
 -11   6   5   -0.30    0.18
 -11   6   4   -0.04    0.13
 -11  -6   3    1.18    0.34
 -11  -6   2    3.31    0.57
 -11  -6   1    0.10    0.19
 -11  -6   0    0.24    0.18
 -11  -6  -1    0.42    0.20
 -11  -6  -2    0.54    0.22
 -11  -6  -3    0.91    0.27
 -11   7   6   -0.02    0.10
 -11   7   5   -0.13    0.12
 -11   7   4    1.95    0.36
 -11  -7   3    0.91    0.29
 -11  -7   2    1.39    0.34
 -11  -7   2    0.59    0.32
 -11  -7   1    1.43    0.36
 -11  -7   0    0.27    0.16
 -11  -7  -1    0.58    0.22
 -11  -7  -2    0.62    0.24
 -11  -7  -3    0.46    0.18
 -11   8   5   -0.05    0.12
 -11   8   4    0.05    0.12
 -11  -8   2    0.26    0.20
 -11  -8   2   -0.07    0.17
 -11  -8   1    0.04    0.10
 -11  -8   0    0.45    0.21
 -11  -8  -1    0.52    0.18
 -11  -8  -2    0.00    0.07
 -11  -9   2    1.81    0.47
 -11  -9   1    0.14    0.12
 -11  -9   0    0.35    0.16
 -11  -9  -1    1.42    0.28
 -11 -10   2    0.15    0.14
 -12   0   2    1.39    0.32
 -12   0   1    0.00    0.11
 -12   0   0    1.96    0.39
 -12   0  -1    0.08    0.10
 -12   1   2    0.42    0.22
 -12  -1   2    0.10    0.15
 -12   1   1   -0.10    0.09
 -12  -1   1    0.09    0.13
 -12   1   0    2.24    0.39
 -12  -1   0    1.83    0.38
 -12   1  -1    0.07    0.09
 -12  -1  -1    0.08    0.10
 -12  -1  -2    0.27    0.14
 -12  -2   2    4.99    0.61
 -12   2   1    0.07    0.13
 -12  -2   1    0.15    0.16
 -12   2   0    0.14    0.13
 -12  -2   0    0.31    0.19
 -12  -2  -1    0.67    0.24
 -12  -2  -2    0.33    0.14
 -12  -3   2    0.83    0.26
 -12  -3   1    3.15    0.47
 -12  -3   0    1.29    0.32
 -12  -3  -1    0.36    0.18
 -12  -4   2   15.02    1.00
 -12  -4   1   13.80    0.97
 -12  -4   0    3.30    0.47
 -12  -4  -1    2.63    0.40
 -12  -5   2   15.05    0.96
 -12  -5   1    2.99    0.43
 -12  -5   0    0.53    0.19
 -12  -6   1    0.29    0.16
   0   0   0    0.00    0.00


TITL yang05 in P2(1)/n
REM P2(1)/n (#14 in standard setting)
CELL 1.54184  10.024800  19.058492  11.475149  90.0000  97.1341  90.0000
ZERR    9.00   0.000799   0.001543   0.000949   0.0000   0.0078   0.0000
LATT  1
SYMM -x+1/2, y+1/2,-z+1/2
SFAC C H N O
UNIT 99.00 90.00 9.00 9.00
TREF
HKLF 4
END
_computing_structure_solution     'SHELXT 2018/2 (Sheldrick, 2018)'
;
_shelx_hkl_checksum                97721
_olex2_date_sample_data_collection  2022-09-19
_olex2_submission_special_instructions  'No special instructions were received'
_oxdiff_exptl_absorpt_empirical_details
;
Empirical correction (ABSPACK) includes:
- Absorption correction using spherical harmonics
- Frame scaling
;
_oxdiff_exptl_absorpt_empirical_full_max  1.727
_oxdiff_exptl_absorpt_empirical_full_min  0.515
