data_yang02-needle
_audit_creation_date               2022-08-27
_audit_creation_method
;
Olex2 1.5-beta
(compiled 2021.12.09 svn.r5202d8cf for OlexSys, GUI svn.r6439)
;
_shelx_SHELXL_version_number       '2017/1'
_audit_contact_author_address      ?
_audit_contact_author_email        ?
_audit_contact_author_name         ''
_audit_contact_author_phone        ?
_publ_contact_author_id_orcid      ?
_publ_section_references
;
Dolomanov, O.V., Bourhis, L.J., Gildea, R.J, Howard, J.A.K. & Puschmann, H.
 (2009), J. Appl. Cryst. 42, 339-341.

Sheldrick, G.M. (2015). Acta Cryst. A71, 3-8.

Sheldrick, G.M. (2015). Acta Cryst. C71, 3-8.
;
_chemical_name_common              ?
_chemical_name_systematic          ?
_chemical_formula_moiety           'C48 H42 N2 O4, C4 H8 O2'
_chemical_formula_sum              'C52 H50 N2 O6'
_chemical_formula_weight           798.94
_chemical_absolute_configuration   ?
_chemical_melting_point            ?
loop_
  _atom_type_symbol
  _atom_type_description
  _atom_type_scat_dispersion_real
  _atom_type_scat_dispersion_imag
  _atom_type_scat_source
 'C' 'C' 0.0181 0.0091 'International Tables Vol C Tables 4.2.6.8 and 6.1.1.4'
 'H' 'H' 0.0000 0.0000 'International Tables Vol C Tables 4.2.6.8 and 6.1.1.4'
 'N' 'N' 0.0311 0.0180 'International Tables Vol C Tables 4.2.6.8 and 6.1.1.4'
 'O' 'O' 0.0492 0.0322 'International Tables Vol C Tables 4.2.6.8 and 6.1.1.4'

_shelx_space_group_comment
;
The symmetry employed for this shelxl refinement is uniquely defined
by the following loop, which should always be used as a source of
symmetry information in preference to the above space-group names.
They are only intended as comments.
;
_space_group_crystal_system        'orthorhombic'
_space_group_IT_number             29
_space_group_name_H-M_alt          'P c a 21'
_space_group_name_Hall             'P 2c -2ac'
loop_
  _space_group_symop_operation_xyz
 'x, y, z'
 '-x, -y, z+1/2'
 'x+1/2, -y, z'
 '-x+1/2, y, z+1/2'

_cell_length_a                     16.8641(3)
_cell_length_b                     8.4415(2)
_cell_length_c                     29.1222(5)
_cell_angle_alpha                  90
_cell_angle_beta                   90
_cell_angle_gamma                  90
_cell_volume                       4145.79(14)
_cell_formula_units_Z              4
_cell_measurement_reflns_used      8238
_cell_measurement_temperature      170.00(10)
_cell_measurement_theta_max        71.3260
_cell_measurement_theta_min        3.0320
_shelx_estimated_absorpt_T_max     0.937
_shelx_estimated_absorpt_T_min     0.913
_exptl_absorpt_coefficient_mu      0.664
_exptl_absorpt_correction_T_max    1.00000
_exptl_absorpt_correction_T_min    0.56758
_exptl_absorpt_correction_type     multi-scan
_exptl_absorpt_process_details
;
CrysAlisPro 1.171.39.33c (Rigaku Oxford Diffraction, 2017)
Empirical absorption correction using spherical harmonics,
 implemented in SCALE3 ABSPACK scaling algorithm.
;
_exptl_absorpt_special_details     ?
_exptl_crystal_colour              'clear light red'
_exptl_crystal_density_diffrn      1.280
_exptl_crystal_density_meas        ?
_exptl_crystal_density_method      ?
_exptl_crystal_description         block
_exptl_crystal_F_000               1696
_exptl_crystal_size_max            0.14
_exptl_crystal_size_mid            0.12
_exptl_crystal_size_min            0.1
_exptl_transmission_factor_max     ?
_exptl_transmission_factor_min     ?
_diffrn_reflns_av_R_equivalents    0.0254
_diffrn_reflns_av_unetI/netI       0.0349
_diffrn_reflns_Laue_measured_fraction_full  0.997
_diffrn_reflns_Laue_measured_fraction_max  0.979
_diffrn_reflns_limit_h_max         20
_diffrn_reflns_limit_h_min         -16
_diffrn_reflns_limit_k_max         10
_diffrn_reflns_limit_k_min         -7
_diffrn_reflns_limit_l_max         35
_diffrn_reflns_limit_l_min         -34
_diffrn_reflns_number              13151
_diffrn_reflns_point_group_measured_fraction_full  0.823
_diffrn_reflns_point_group_measured_fraction_max  0.799
_diffrn_reflns_theta_full          67.684
_diffrn_reflns_theta_max           71.605
_diffrn_reflns_theta_min           3.035
_diffrn_ambient_environment        N~2~
_diffrn_ambient_temperature        170.00(10)
_diffrn_detector                   'CCD plate'
_diffrn_detector_area_resol_mean   ?
_diffrn_measured_fraction_theta_full  0.997
_diffrn_measured_fraction_theta_max  0.979
_diffrn_measurement_details
;
List of Runs (angles in degrees, time in seconds):

  # Type    Start    End  Width  t~exp~   \w     \q     \k     \f   Frames
--------------------------------------------------------------------------
  1  \w     14.00  55.00   0.50    0.50    --   42.30  57.00 120.00   82
  2  \w     82.00 107.00   0.50    0.50    --   42.30  57.00 120.00   50
  3  \w    -47.00  97.00   0.50    0.50    --   42.30  19.00-150.00  288
  4  \w    140.00 188.00   0.50    1.63    --  101.60  82.00-120.00   96
  5  \w     61.00  87.00   0.50    1.63    --  101.60 -50.00  30.00   52
  6  \w     12.00 128.00   0.50    1.63    --  101.60 -50.00-120.00  232
  7  \w    139.00 169.00   0.50    1.63    --  101.60  82.00  90.00   60
  8  \w    113.00 138.00   0.50    1.63    --  101.60  82.00  90.00   50
  9  \w     16.00  41.00   0.50    1.63    --  101.60 -82.00  30.00   50
 10  \w     96.00 142.00   0.50    1.63    --  101.60 -82.00  30.00   92
 11  \w     38.00 131.00   0.50    1.63    --  101.60 -50.00 120.00  186
 12  \w     97.00 105.50   0.50    1.63    --  101.60  82.00-120.00   17
;
_diffrn_measurement_device         'four-circle diffractometer'
_diffrn_measurement_device_type    'XtaLAB AFC12 (RINC): Kappa single'
_diffrn_measurement_method         '\w scans'
_diffrn_orient_matrix_type        
 'CrysAlisPro convention (1999,Acta A55,543-557)'
_diffrn_orient_matrix_UB_11        -0.0446930000
_diffrn_orient_matrix_UB_12        0.0821234000
_diffrn_orient_matrix_UB_13        0.0191383000
_diffrn_orient_matrix_UB_21        0.0468272000
_diffrn_orient_matrix_UB_22        -0.0273901000
_diffrn_orient_matrix_UB_23        0.0486107000
_diffrn_orient_matrix_UB_31        0.1706731000
_diffrn_orient_matrix_UB_32        0.0291187000
_diffrn_orient_matrix_UB_33        -0.0083003000
_diffrn_radiation_monochromator    mirror
_diffrn_radiation_probe            x-ray
_diffrn_radiation_type             'Cu K\a'
_diffrn_radiation_wavelength       1.54184
_diffrn_source                     'Rotating-anode X-ray tube'
_diffrn_source_type                'Rigaku (Cu) X-ray Source'
_reflns_Friedel_coverage           0.596
_reflns_Friedel_fraction_full      0.640
_reflns_Friedel_fraction_max       0.610
_reflns_number_gt                  6130
_reflns_number_total               6482
_reflns_special_details
;
 Reflections were merged by SHELXL according to the crystal
 class for the calculation of statistics and refinement.
 
 _reflns_Friedel_fraction is defined as the number of unique
 Friedel pairs measured divided by the number that would be
 possible theoretically, ignoring centric projections and
 systematic absences.
;
_reflns_threshold_expression       'I > 2\s(I)'
_computing_cell_refinement         'CrysAlisPro 1.171.39.33c (Rigaku OD, 2017)'
_computing_data_collection         'CrysAlisPro 1.171.39.33c (Rigaku OD, 2017)'
_computing_data_reduction          'CrysAlisPro 1.171.39.33c (Rigaku OD, 2017)'
_computing_molecular_graphics      'Olex2 1.5-beta (Dolomanov et al., 2009)'
_computing_publication_material    'Olex2 1.5-beta (Dolomanov et al., 2009)'
_computing_structure_refinement    'SHELXL 2017/1 (Sheldrick, 2015)'
_computing_structure_solution      'SHELXT 2014/5 (Sheldrick, 2014)'
_refine_diff_density_max           0.229
_refine_diff_density_min           -0.173
_refine_diff_density_rms           0.041
_refine_ls_abs_structure_details
;
 Flack x determined using 2130 quotients [(I+)-(I-)]/[(I+)+(I-)]
 (Parsons, Flack and Wagner, Acta Cryst. B69 (2013) 249-259).
;
_refine_ls_abs_structure_Flack     0.39(12)
_refine_ls_extinction_coef         0.00067(12)
_refine_ls_extinction_expression  
 'Fc^*^=kFc[1+0.001xFc^2^\l^3^/sin(2\q)]^-1/4^'
_refine_ls_extinction_method       'SHELXL-2017/1 (Sheldrick 2017)'
_refine_ls_goodness_of_fit_ref     1.055
_refine_ls_hydrogen_treatment      constr
_refine_ls_matrix_type             full
_refine_ls_number_parameters       569
_refine_ls_number_reflns           6482
_refine_ls_number_restraints       1
_refine_ls_R_factor_all            0.0424
_refine_ls_R_factor_gt             0.0405
_refine_ls_restrained_S_all        1.055
_refine_ls_shift/su_max            0.000
_refine_ls_shift/su_mean           0.000
_refine_ls_structure_factor_coef   Fsqd
_refine_ls_weighting_details      
 'w=1/[\s^2^(Fo^2^)+(0.0716P)^2^+0.5802P] where P=(Fo^2^+2Fc^2^)/3'
_refine_ls_weighting_scheme        calc
_refine_ls_wR_factor_gt            0.1114
_refine_ls_wR_factor_ref           0.1131
_refine_special_details            ?
_olex2_refinement_description
;
1. Fixed Uiso
 At 1.2 times of:
  All C(H) groups, All C(H,H,H,H) groups
 At 1.5 times of:
  All C(H,H,H) groups
2. Others
 Sof(O5B)=Sof(O6B)=Sof(H37C)=Sof(H37D)=Sof(H38C)=Sof(H38D)=Sof(H39C)=Sof(H39D)=
 Sof(H40C)=Sof(H40D)=1-FVAR(1)
 Sof(O5)=Sof(O6)=Sof(H37A)=Sof(H37B)=Sof(H38A)=Sof(H38B)=Sof(H39A)=Sof(H39B)=
 Sof(H40A)=Sof(H40B)=FVAR(1)
3.a Ternary CH refined with riding coordinates:
 C31(H31), C34(H34), C47(H47), C50(H50)
3.b Secondary CH2 refined with riding coordinates:
 C37(H37A,H37B), C37(H37C,H37D), C38(H38C,H38D), C38(H38A,H38B), C39(H39C,
 H39D), C39(H39A,H39B), C40(H40C,H40D), C40(H40A,H40B)
3.c Aromatic/amide H refined with riding coordinates:
 C6(H6), C7(H7), C11(H11), C12(H12), C14(H14), C15(H15), C20(H20), C21(H21),
 C27(H27), C28(H28), C29(H29), C43(H43), C44(H44), C45(H45)
3.d Idealised Me refined as rotating group:
 C32(H32A,H32B,H32C), C33(H33A,H33B,H33C), C35(H35A,H35B,H35C), C36(H36A,H36B,
 H36C), C48(H48A,H48B,H48C), C49(H49A,H49B,H49C), C51(H51A,H51B,H51C), C52(H52A,
 H52B,H52C)
;
_atom_sites_solution_hydrogens     geom
_atom_sites_solution_primary       dual
_atom_sites_solution_secondary     ?
loop_
  _atom_site_label
  _atom_site_type_symbol
  _atom_site_fract_x
  _atom_site_fract_y
  _atom_site_fract_z
  _atom_site_U_iso_or_equiv
  _atom_site_adp_type
  _atom_site_occupancy
  _atom_site_site_symmetry_order
  _atom_site_calc_flag
  _atom_site_refinement_flags_posn
  _atom_site_refinement_flags_adp
  _atom_site_refinement_flags_occupancy
  _atom_site_disorder_assembly
  _atom_site_disorder_group
 O1 O 0.51335(11) 0.0306(3) 0.31231(7) 0.0366(5) Uani 1 1 d . . . . .
 O2 O 0.33518(11) -0.0600(2) 0.42603(7) 0.0345(5) Uani 1 1 d . . . . .
 O3 O 0.75308(12) 0.5045(3) 0.68396(7) 0.0372(5) Uani 1 1 d . . . . .
 O4 O 0.93826(11) 0.5640(2) 0.57250(7) 0.0345(4) Uani 1 1 d . . . . .
 N1 N 0.42837(12) -0.0291(2) 0.37021(8) 0.0245(4) Uani 1 1 d . . . . .
 N2 N 0.84158(12) 0.5513(2) 0.62666(8) 0.0247(4) Uani 1 1 d . . . . .
 C1 C 0.49791(15) 0.0384(3) 0.35293(9) 0.0261(5) Uani 1 1 d . . . . .
 C2 C 0.55091(14) 0.1151(3) 0.38685(9) 0.0243(5) Uani 1 1 d . . . . .
 C3 C 0.52962(14) 0.1220(3) 0.43353(9) 0.0226(5) Uani 1 1 d . . . . .
 C4 C 0.45553(14) 0.0634(3) 0.44828(9) 0.0235(5) Uani 1 1 d . . . . .
 C5 C 0.40069(15) -0.0115(3) 0.41518(9) 0.0256(5) Uani 1 1 d . . . . .
 C6 C 0.43469(15) 0.0712(3) 0.49393(9) 0.0281(5) Uani 1 1 d . . . . .
 H6 H 0.385588 0.033175 0.503408 0.034 Uiso 1 1 calc R U . . .
 C7 C 0.48679(15) 0.1359(3) 0.52605(9) 0.0275(5) Uani 1 1 d . . . . .
 H7 H 0.471771 0.139808 0.556754 0.033 Uiso 1 1 calc R U . . .
 C8 C 0.56050(14) 0.1945(3) 0.51336(9) 0.0236(5) Uani 1 1 d . . . . .
 C9 C 0.58293(15) 0.1891(3) 0.46605(8) 0.0235(5) Uani 1 1 d . . . . .
 C10 C 0.65744(14) 0.2483(3) 0.45064(9) 0.0231(5) Uani 1 1 d . . . . .
 C11 C 0.67508(15) 0.2418(3) 0.40410(9) 0.0272(5) Uani 1 1 d . . . . .
 H11 H 0.723272 0.281966 0.393831 0.033 Uiso 1 1 calc R U . . .
 C12 C 0.62238(15) 0.1766(3) 0.37229(9) 0.0266(5) Uani 1 1 d . . . . .
 H12 H 0.635496 0.174601 0.341280 0.032 Uiso 1 1 calc R U . . .
 C13 C 0.71285(14) 0.3140(3) 0.48455(8) 0.0228(5) Uani 1 1 d . . . . .
 C14 C 0.78705(15) 0.3712(3) 0.47178(9) 0.0282(5) Uani 1 1 d . . . . .
 H14 H 0.802551 0.365127 0.441186 0.034 Uiso 1 1 calc R U . . .
 C15 C 0.83860(15) 0.4372(3) 0.50389(9) 0.0282(5) Uani 1 1 d . . . . .
 H15 H 0.888049 0.473901 0.494572 0.034 Uiso 1 1 calc R U . . .
 C16 C 0.81677(14) 0.4487(3) 0.54939(9) 0.0234(5) Uani 1 1 d . . . . .
 C17 C 0.74235(14) 0.3913(3) 0.56391(9) 0.0224(5) Uani 1 1 d . . . . .
 C18 C 0.68972(14) 0.3210(3) 0.53160(8) 0.0220(5) Uani 1 1 d . . . . .
 C19 C 0.61574(14) 0.2609(3) 0.54730(9) 0.0235(5) Uani 1 1 d . . . . .
 C20 C 0.59773(14) 0.2674(3) 0.59380(9) 0.0273(5) Uani 1 1 d . . . . .
 H20 H 0.550378 0.223925 0.604262 0.033 Uiso 1 1 calc R U . . .
 C21 C 0.64954(15) 0.3380(3) 0.62514(9) 0.0264(5) Uani 1 1 d . . . . .
 H21 H 0.636220 0.341311 0.656113 0.032 Uiso 1 1 calc R U . . .
 C22 C 0.72012(14) 0.4028(3) 0.61061(9) 0.0244(5) Uani 1 1 d . . . . .
 C23 C 0.77083(15) 0.4871(3) 0.64386(9) 0.0266(5) Uani 1 1 d . . . . .
 C24 C 0.87127(15) 0.5235(3) 0.58237(9) 0.0252(5) Uani 1 1 d . . . . .
 C25 C 0.88940(15) 0.6491(3) 0.65709(9) 0.0261(5) Uani 1 1 d . . . . .
 C26 C 0.88103(17) 0.8137(3) 0.65349(9) 0.0306(6) Uani 1 1 d . . . . .
 C27 C 0.92732(19) 0.9069(3) 0.68252(11) 0.0390(7) Uani 1 1 d . . . . .
 H27 H 0.922960 1.016638 0.681185 0.047 Uiso 1 1 calc R U . . .
 C28 C 0.97991(19) 0.8383(4) 0.71342(11) 0.0412(7) Uani 1 1 d . . . . .
 H28 H 1.010574 0.902272 0.732401 0.049 Uiso 1 1 calc R U . . .
 C29 C 0.98682(17) 0.6759(4) 0.71607(10) 0.0359(6) Uani 1 1 d . . . . .
 H29 H 1.022205 0.631321 0.736871 0.043 Uiso 1 1 calc R U . . .
 C30 C 0.94110(16) 0.5768(3) 0.68775(10) 0.0303(6) Uani 1 1 d . . . . .
 C31 C 0.94992(16) 0.3981(3) 0.69095(10) 0.0333(6) Uani 1 1 d . . . . .
 H31 H 0.906795 0.350512 0.673107 0.040 Uiso 1 1 calc R U . . .
 C32 C 0.9420(2) 0.3393(4) 0.74040(13) 0.0495(8) Uani 1 1 d . . . . .
 H32A H 0.986157 0.376887 0.758168 0.074 Uiso 1 1 calc R U . . .
 H32B H 0.941470 0.225631 0.740679 0.074 Uiso 1 1 calc R U . . .
 H32C H 0.893568 0.378622 0.753395 0.074 Uiso 1 1 calc R U . . .
 C33 C 1.0278(2) 0.3436(4) 0.66980(14) 0.0520(8) Uani 1 1 d . . . . .
 H33A H 1.030694 0.379086 0.638528 0.078 Uiso 1 1 calc R U . . .
 H33B H 1.030555 0.230031 0.670637 0.078 Uiso 1 1 calc R U . . .
 H33C H 1.071295 0.387252 0.686895 0.078 Uiso 1 1 calc R U . . .
 C34 C 0.82334(17) 0.8896(3) 0.61969(11) 0.0348(6) Uani 1 1 d . . . . .
 H34 H 0.821165 0.821979 0.592371 0.042 Uiso 1 1 calc R U . . .
 C35 C 0.8483(2) 1.0558(3) 0.60409(12) 0.0464(8) Uani 1 1 d . . . . .
 H35A H 0.814710 1.089745 0.579357 0.070 Uiso 1 1 calc R U . . .
 H35B H 0.902377 1.053383 0.593829 0.070 Uiso 1 1 calc R U . . .
 H35C H 0.843414 1.128362 0.629319 0.070 Uiso 1 1 calc R U . . .
 C36 C 0.7399(2) 0.8986(4) 0.63956(13) 0.0502(8) Uani 1 1 d . . . . .
 H36A H 0.739752 0.968341 0.665605 0.075 Uiso 1 1 calc R U . . .
 H36B H 0.723223 0.794861 0.648947 0.075 Uiso 1 1 calc R U . . .
 H36C H 0.704171 0.938434 0.616634 0.075 Uiso 1 1 calc R U . . .
 C41 C 0.38148(15) -0.1284(3) 0.33953(9) 0.0277(5) Uani 1 1 d . . . . .
 C42 C 0.39357(16) -0.2918(3) 0.34178(10) 0.0301(5) Uani 1 1 d . . . . .
 C43 C 0.34874(17) -0.3865(3) 0.31240(11) 0.0373(6) Uani 1 1 d . . . . .
 H43 H 0.355204 -0.495882 0.313144 0.045 Uiso 1 1 calc R U . . .
 C44 C 0.29477(19) -0.3205(4) 0.28215(11) 0.0405(7) Uani 1 1 d . . . . .
 H44 H 0.265845 -0.385321 0.262487 0.049 Uiso 1 1 calc R U . . .
 C45 C 0.28385(17) -0.1577(4) 0.28117(10) 0.0364(6) Uani 1 1 d . . . . .
 H45 H 0.246907 -0.114770 0.260986 0.044 Uiso 1 1 calc R U . . .
 C46 C 0.32696(16) -0.0569(3) 0.30973(10) 0.0299(6) Uani 1 1 d . . . . .
 C47 C 0.31389(17) 0.1204(3) 0.30826(11) 0.0345(6) Uani 1 1 d . . . . .
 H47 H 0.354998 0.170429 0.327117 0.041 Uiso 1 1 calc R U . . .
 C48 C 0.2346(3) 0.1659(5) 0.3278(3) 0.106(2) Uani 1 1 d . . . . .
 H48A H 0.229205 0.279114 0.327402 0.159 Uiso 1 1 calc R U . . .
 H48B H 0.230737 0.128491 0.358879 0.159 Uiso 1 1 calc R U . . .
 H48C H 0.193199 0.119153 0.309706 0.159 Uiso 1 1 calc R U . . .
 C49 C 0.3212(4) 0.1850(5) 0.26027(16) 0.0869(17) Uani 1 1 d . . . . .
 H49A H 0.281321 0.137898 0.241089 0.130 Uiso 1 1 calc R U . . .
 H49B H 0.372755 0.160394 0.248286 0.130 Uiso 1 1 calc R U . . .
 H49C H 0.314086 0.297799 0.260824 0.130 Uiso 1 1 calc R U . . .
 C50 C 0.45459(18) -0.3650(3) 0.37403(11) 0.0364(6) Uani 1 1 d . . . . .
 H50 H 0.456318 -0.299774 0.401847 0.044 Uiso 1 1 calc R U . . .
 C51 C 0.53743(19) -0.3623(4) 0.35261(14) 0.0504(8) Uani 1 1 d . . . . .
 H51A H 0.574735 -0.408880 0.373527 0.076 Uiso 1 1 calc R U . . .
 H51B H 0.552526 -0.254764 0.346385 0.076 Uiso 1 1 calc R U . . .
 H51C H 0.536999 -0.421524 0.324467 0.076 Uiso 1 1 calc R U . . .
 C52 C 0.4345(2) -0.5341(4) 0.38865(13) 0.0480(8) Uani 1 1 d . . . . .
 H52A H 0.441579 -0.604333 0.363052 0.072 Uiso 1 1 calc R U . . .
 H52B H 0.380393 -0.538520 0.398807 0.072 Uiso 1 1 calc R U . . .
 H52C H 0.468901 -0.565624 0.413267 0.072 Uiso 1 1 calc R U . . .
 O5 O 0.6603(4) 0.8853(7) 0.5249(2) 0.0625(19) Uani 0.428(5) 1 d . . P A 1
 O5B O 0.6911(3) 0.7227(5) 0.53320(17) 0.0534(12) Uani 0.572(5) 1 d . . P A 2
 O6 O 0.6065(4) 0.6208(7) 0.4738(3) 0.064(2) Uani 0.428(5) 1 d . . P A 1
 O6B O 0.5793(3) 0.7876(5) 0.46418(18) 0.0587(14) Uani 0.572(5) 1 d . . P A 2
 C37 C 0.6593(3) 0.7645(7) 0.45498(16) 0.0787(14) Uani 1 1 d . . . . .
 H37A H 0.693202 0.728607 0.430153 0.094 Uiso 0.428(5) 1 calc R U P A 1
 H37B H 0.625558 0.848671 0.443487 0.094 Uiso 0.428(5) 1 calc R U P A 1
 H37C H 0.673744 0.820808 0.427166 0.094 Uiso 0.572(5) 1 calc R U P A 2
 H37D H 0.669473 0.652647 0.450139 0.094 Uiso 0.572(5) 1 calc R U P A 2
 C38 C 0.7083(2) 0.8231(5) 0.49405(17) 0.0613(11) Uani 1 1 d . . . . .
 H38C H 0.764243 0.817372 0.486388 0.074 Uiso 0.572(5) 1 calc R U P A 2
 H38D H 0.695148 0.932350 0.500973 0.074 Uiso 0.572(5) 1 calc R U P A 2
 H38A H 0.738014 0.736228 0.507485 0.074 Uiso 0.428(5) 1 calc R U P A 1
 H38B H 0.745682 0.902295 0.483347 0.074 Uiso 0.428(5) 1 calc R U P A 1
 C39 C 0.6089(3) 0.7428(7) 0.54366(18) 0.0800(15) Uani 1 1 d . . . . .
 H39C H 0.597646 0.853758 0.549402 0.096 Uiso 0.572(5) 1 calc R U P A 2
 H39D H 0.595353 0.683045 0.571005 0.096 Uiso 0.572(5) 1 calc R U P A 2
 H39A H 0.642824 0.658999 0.555194 0.096 Uiso 0.428(5) 1 calc R U P A 1
 H39B H 0.574482 0.778105 0.568313 0.096 Uiso 0.428(5) 1 calc R U P A 1
 C40 C 0.5614(2) 0.6858(5) 0.5041(2) 0.0741(15) Uani 1 1 d . . . . .
 H40C H 0.574692 0.576563 0.497247 0.089 Uiso 0.572(5) 1 calc R U P A 2
 H40D H 0.505272 0.691245 0.511336 0.089 Uiso 0.572(5) 1 calc R U P A 2
 H40A H 0.522446 0.609457 0.514697 0.089 Uiso 0.428(5) 1 calc R U P A 1
 H40B H 0.533206 0.774157 0.490408 0.089 Uiso 0.428(5) 1 calc R U P A 1

loop_
  _atom_site_aniso_label
  _atom_site_aniso_U_11
  _atom_site_aniso_U_22
  _atom_site_aniso_U_33
  _atom_site_aniso_U_23
  _atom_site_aniso_U_13
  _atom_site_aniso_U_12
 O1 0.0393(10) 0.0478(12) 0.0227(10) -0.0065(8) 0.0007(8) -0.0118(9)
 O2 0.0304(9) 0.0444(11) 0.0286(10) -0.0048(9) 0.0023(8) -0.0118(8)
 O3 0.0441(10) 0.0471(11) 0.0205(9) -0.0056(8) 0.0008(8) -0.0090(10)
 O4 0.0292(9) 0.0438(11) 0.0306(10) -0.0057(9) 0.0000(8) -0.0101(8)
 N1 0.0259(10) 0.0248(9) 0.0230(11) -0.0033(8) -0.0026(8) -0.0036(8)
 N2 0.0280(10) 0.0236(10) 0.0225(11) -0.0016(8) -0.0027(8) -0.0029(8)
 C1 0.0287(12) 0.0254(12) 0.0243(13) -0.0025(10) -0.0025(9) -0.0001(10)
 C2 0.0280(12) 0.0220(11) 0.0230(12) -0.0011(9) -0.0022(10) -0.0003(9)
 C3 0.0247(11) 0.0188(10) 0.0241(12) -0.0002(9) -0.0016(9) 0.0025(9)
 C4 0.0243(11) 0.0226(11) 0.0235(13) -0.0012(9) -0.0008(10) -0.0002(9)
 C5 0.0280(12) 0.0240(11) 0.0248(13) -0.0007(10) -0.0026(10) 0.0008(10)
 C6 0.0259(12) 0.0331(13) 0.0253(13) -0.0022(10) 0.0012(10) -0.0040(10)
 C7 0.0276(11) 0.0329(13) 0.0221(12) -0.0043(10) 0.0029(10) -0.0009(10)
 C8 0.0253(12) 0.0223(11) 0.0232(12) -0.0021(9) 0.0007(9) 0.0020(9)
 C9 0.0247(11) 0.0225(11) 0.0231(13) -0.0014(9) -0.0022(10) 0.0016(9)
 C10 0.0260(11) 0.0230(12) 0.0203(12) -0.0009(9) -0.0002(10) 0.0024(9)
 C11 0.0252(11) 0.0336(13) 0.0229(12) 0.0000(10) 0.0024(10) -0.0023(10)
 C12 0.0296(12) 0.0299(12) 0.0205(12) -0.0012(10) 0.0013(9) 0.0004(10)
 C13 0.0224(11) 0.0238(11) 0.0222(12) -0.0019(9) -0.0006(9) 0.0010(9)
 C14 0.0269(12) 0.0354(13) 0.0222(12) -0.0029(10) 0.0034(10) -0.0027(10)
 C15 0.0233(12) 0.0341(13) 0.0272(14) -0.0039(11) 0.0030(10) -0.0042(10)
 C16 0.0247(11) 0.0202(11) 0.0253(13) 0.0002(9) -0.0023(10) 0.0005(9)
 C17 0.0253(11) 0.0199(10) 0.0222(12) 0.0003(9) -0.0005(9) 0.0021(9)
 C18 0.0244(11) 0.0202(10) 0.0214(12) -0.0011(9) -0.0008(9) 0.0038(9)
 C19 0.0244(11) 0.0229(11) 0.0232(13) -0.0003(9) -0.0021(9) 0.0032(9)
 C20 0.0243(11) 0.0320(12) 0.0255(13) 0.0000(10) -0.0004(10) 0.0006(10)
 C21 0.0299(11) 0.0309(12) 0.0183(11) -0.0003(10) 0.0006(9) 0.0015(10)
 C22 0.0263(11) 0.0246(11) 0.0224(12) 0.0000(10) -0.0027(9) 0.0030(9)
 C23 0.0313(12) 0.0250(11) 0.0235(13) 0.0013(10) -0.0024(10) 0.0001(10)
 C24 0.0271(12) 0.0258(11) 0.0228(12) 0.0009(10) -0.0018(10) 0.0002(10)
 C25 0.0310(12) 0.0263(12) 0.0212(12) -0.0030(10) -0.0016(10) -0.0025(10)
 C26 0.0417(14) 0.0252(12) 0.0250(13) -0.0023(10) 0.0018(11) 0.0013(11)
 C27 0.0547(17) 0.0278(13) 0.0346(15) -0.0057(11) -0.0045(13) -0.0046(12)
 C28 0.0501(16) 0.0383(15) 0.0352(16) -0.0089(12) -0.0074(13) -0.0114(13)
 C29 0.0412(14) 0.0393(15) 0.0271(13) -0.0006(11) -0.0094(12) -0.0067(12)
 C30 0.0361(14) 0.0296(13) 0.0250(14) -0.0005(10) -0.0025(11) -0.0034(11)
 C31 0.0378(14) 0.0310(13) 0.0310(15) 0.0031(11) -0.0091(11) -0.0021(11)
 C32 0.066(2) 0.0371(16) 0.0451(19) 0.0101(14) 0.0014(16) 0.0019(15)
 C33 0.0615(19) 0.0359(15) 0.058(2) 0.0037(15) 0.0121(17) 0.0075(15)
 C34 0.0449(15) 0.0293(13) 0.0302(14) -0.0021(11) -0.0024(12) 0.0086(11)
 C35 0.070(2) 0.0299(15) 0.0395(17) 0.0040(12) 0.0054(15) 0.0101(14)
 C36 0.0492(17) 0.0522(18) 0.049(2) 0.0070(16) 0.0007(15) 0.0114(15)
 C41 0.0299(12) 0.0297(13) 0.0236(13) -0.0052(10) -0.0008(10) -0.0068(10)
 C42 0.0320(12) 0.0297(13) 0.0285(14) -0.0054(10) 0.0023(10) -0.0007(10)
 C43 0.0417(15) 0.0302(14) 0.0399(16) -0.0105(12) -0.0002(13) -0.0047(11)
 C44 0.0418(15) 0.0416(16) 0.0380(16) -0.0149(13) -0.0044(12) -0.0102(13)
 C45 0.0367(14) 0.0408(16) 0.0316(15) -0.0050(12) -0.0082(12) -0.0025(12)
 C46 0.0313(12) 0.0343(14) 0.0241(13) -0.0028(11) 0.0002(10) -0.0043(11)
 C47 0.0400(15) 0.0310(13) 0.0327(15) -0.0008(11) -0.0067(12) 0.0016(11)
 C48 0.097(4) 0.046(2) 0.175(7) 0.014(3) 0.076(4) 0.017(2)
 C49 0.176(6) 0.042(2) 0.043(2) 0.0043(17) 0.014(3) -0.014(3)
 C50 0.0468(15) 0.0279(13) 0.0344(15) -0.0080(11) -0.0055(12) 0.0054(11)
 C51 0.0382(15) 0.0540(19) 0.059(2) -0.0005(17) -0.0063(15) 0.0079(14)
 C52 0.060(2) 0.0332(15) 0.050(2) 0.0015(14) 0.0028(15) 0.0096(14)
 O5 0.087(5) 0.044(3) 0.056(4) 0.002(3) -0.008(3) 0.012(3)
 O5B 0.057(2) 0.047(2) 0.057(3) 0.006(2) -0.018(2) 0.0136(19)
 O6 0.083(5) 0.044(3) 0.066(4) -0.001(3) -0.016(4) 0.000(3)
 O6B 0.064(3) 0.047(3) 0.065(3) 0.004(2) -0.024(2) 0.010(2)
 C37 0.080(3) 0.111(4) 0.045(2) 0.016(2) 0.010(2) 0.030(3)
 C38 0.0410(17) 0.049(2) 0.094(3) 0.023(2) 0.0009(19) 0.0016(15)
 C39 0.074(3) 0.108(4) 0.058(3) 0.033(3) 0.017(2) 0.024(3)
 C40 0.0437(19) 0.053(2) 0.126(5) 0.029(3) -0.004(2) 0.0009(17)

_geom_special_details
;
 All esds (except the esd in the dihedral angle between two l.s. planes)
 are estimated using the full covariance matrix.  The cell esds are taken
 into account individually in the estimation of esds in distances, angles
 and torsion angles; correlations between esds in cell parameters are only
 used when they are defined by crystal symmetry.  An approximate (isotropic)
 treatment of cell esds is used for estimating esds involving l.s. planes.
;
loop_
  _geom_bond_atom_site_label_1
  _geom_bond_atom_site_label_2
  _geom_bond_distance
  _geom_bond_site_symmetry_2
  _geom_bond_publ_flag
 O1 C1 1.213(3) . ?
 O2 C5 1.220(3) . ?
 O3 C23 1.214(3) . ?
 O4 C24 1.215(3) . ?
 N1 C1 1.398(3) . ?
 N1 C5 1.398(4) . ?
 N1 C41 1.458(3) . ?
 N2 C23 1.403(3) . ?
 N2 C24 1.403(3) . ?
 N2 C25 1.455(3) . ?
 C1 C2 1.481(3) . ?
 C2 C3 1.407(4) . ?
 C2 C12 1.379(4) . ?
 C3 C4 1.411(3) . ?
 C3 C9 1.423(3) . ?
 C4 C5 1.478(4) . ?
 C4 C6 1.377(4) . ?
 C6 H6 0.9300 . ?
 C6 C7 1.395(4) . ?
 C7 H7 0.9300 . ?
 C7 C8 1.388(4) . ?
 C8 C9 1.429(3) . ?
 C8 C19 1.469(3) . ?
 C9 C10 1.425(3) . ?
 C10 C11 1.389(4) . ?
 C10 C13 1.468(3) . ?
 C11 H11 0.9300 . ?
 C11 C12 1.397(4) . ?
 C12 H12 0.9300 . ?
 C13 C14 1.392(3) . ?
 C13 C18 1.426(3) . ?
 C14 H14 0.9300 . ?
 C14 C15 1.393(4) . ?
 C15 H15 0.9300 . ?
 C15 C16 1.379(4) . ?
 C16 C17 1.410(3) . ?
 C16 C24 1.472(3) . ?
 C17 C18 1.423(3) . ?
 C17 C22 1.414(4) . ?
 C18 C19 1.423(4) . ?
 C19 C20 1.389(4) . ?
 C20 H20 0.9300 . ?
 C20 C21 1.397(4) . ?
 C21 H21 0.9300 . ?
 C21 C22 1.377(4) . ?
 C22 C23 1.475(3) . ?
 C25 C26 1.400(4) . ?
 C25 C30 1.389(4) . ?
 C26 C27 1.394(4) . ?
 C26 C34 1.525(4) . ?
 C27 H27 0.9300 . ?
 C27 C28 1.390(5) . ?
 C28 H28 0.9300 . ?
 C28 C29 1.378(4) . ?
 C29 H29 0.9300 . ?
 C29 C30 1.405(4) . ?
 C30 C31 1.519(4) . ?
 C31 H31 0.9800 . ?
 C31 C32 1.529(5) . ?
 C31 C33 1.522(5) . ?
 C32 H32A 0.9600 . ?
 C32 H32B 0.9600 . ?
 C32 H32C 0.9600 . ?
 C33 H33A 0.9600 . ?
 C33 H33B 0.9600 . ?
 C33 H33C 0.9600 . ?
 C34 H34 0.9800 . ?
 C34 C35 1.533(4) . ?
 C34 C36 1.523(5) . ?
 C35 H35A 0.9600 . ?
 C35 H35B 0.9600 . ?
 C35 H35C 0.9600 . ?
 C36 H36A 0.9600 . ?
 C36 H36B 0.9600 . ?
 C36 H36C 0.9600 . ?
 C41 C42 1.396(4) . ?
 C41 C46 1.401(4) . ?
 C42 C43 1.394(4) . ?
 C42 C50 1.524(4) . ?
 C43 H43 0.9300 . ?
 C43 C44 1.384(5) . ?
 C44 H44 0.9300 . ?
 C44 C45 1.387(5) . ?
 C45 H45 0.9300 . ?
 C45 C46 1.394(4) . ?
 C46 C47 1.514(4) . ?
 C47 H47 0.9800 . ?
 C47 C48 1.503(5) . ?
 C47 C49 1.505(5) . ?
 C48 H48A 0.9600 . ?
 C48 H48B 0.9600 . ?
 C48 H48C 0.9600 . ?
 C49 H49A 0.9600 . ?
 C49 H49B 0.9600 . ?
 C49 H49C 0.9600 . ?
 C50 H50 0.9800 . ?
 C50 C51 1.530(5) . ?
 C50 C52 1.527(4) . ?
 C51 H51A 0.9600 . ?
 C51 H51B 0.9600 . ?
 C51 H51C 0.9600 . ?
 C52 H52A 0.9600 . ?
 C52 H52B 0.9600 . ?
 C52 H52C 0.9600 . ?
 O5 C38 1.318(8) . ?
 O5 C39 1.580(9) . ?
 O5B C38 1.450(6) . ?
 O5B C39 1.430(7) . ?
 O6 C37 1.602(9) . ?
 O6 C40 1.288(9) . ?
 O6B C37 1.389(7) . ?
 O6B C40 1.477(7) . ?
 C37 H37A 0.9700 . ?
 C37 H37B 0.9700 . ?
 C37 H37C 0.9700 . ?
 C37 H37D 0.9700 . ?
 C37 C38 1.491(7) . ?
 C38 H38C 0.9700 . ?
 C38 H38D 0.9700 . ?
 C38 H38A 0.9700 . ?
 C38 H38B 0.9700 . ?
 C39 H39C 0.9700 . ?
 C39 H39D 0.9700 . ?
 C39 H39A 0.9700 . ?
 C39 H39B 0.9700 . ?
 C39 C40 1.484(8) . ?
 C40 H40C 0.9700 . ?
 C40 H40D 0.9700 . ?
 C40 H40A 0.9700 . ?
 C40 H40B 0.9700 . ?

loop_
  _geom_angle_atom_site_label_1
  _geom_angle_atom_site_label_2
  _geom_angle_atom_site_label_3
  _geom_angle
  _geom_angle_site_symmetry_1
  _geom_angle_site_symmetry_3
  _geom_angle_publ_flag
 C1 N1 C5 125.0(2) . . ?
 C1 N1 C41 118.0(2) . . ?
 C5 N1 C41 117.0(2) . . ?
 C23 N2 C24 124.5(2) . . ?
 C23 N2 C25 118.2(2) . . ?
 C24 N2 C25 117.2(2) . . ?
 O1 C1 N1 120.6(2) . . ?
 O1 C1 C2 123.0(2) . . ?
 N1 C1 C2 116.4(2) . . ?
 C3 C2 C1 120.5(2) . . ?
 C12 C2 C1 119.1(2) . . ?
 C12 C2 C3 120.3(2) . . ?
 C2 C3 C4 120.4(2) . . ?
 C2 C3 C9 119.9(2) . . ?
 C4 C3 C9 119.8(2) . . ?
 C3 C4 C5 120.4(2) . . ?
 C6 C4 C3 120.2(2) . . ?
 C6 C4 C5 119.4(2) . . ?
 O2 C5 N1 120.6(2) . . ?
 O2 C5 C4 122.8(2) . . ?
 N1 C5 C4 116.6(2) . . ?
 C4 C6 H6 119.8 . . ?
 C4 C6 C7 120.4(2) . . ?
 C7 C6 H6 119.8 . . ?
 C6 C7 H7 119.2 . . ?
 C8 C7 C6 121.7(2) . . ?
 C8 C7 H7 119.2 . . ?
 C7 C8 C9 118.8(2) . . ?
 C7 C8 C19 121.6(2) . . ?
 C9 C8 C19 119.5(2) . . ?
 C3 C9 C8 119.1(2) . . ?
 C3 C9 C10 119.1(2) . . ?
 C10 C9 C8 121.7(2) . . ?
 C9 C10 C13 118.8(2) . . ?
 C11 C10 C9 118.9(2) . . ?
 C11 C10 C13 122.3(2) . . ?
 C10 C11 H11 119.1 . . ?
 C10 C11 C12 121.8(2) . . ?
 C12 C11 H11 119.1 . . ?
 C2 C12 C11 120.0(2) . . ?
 C2 C12 H12 120.0 . . ?
 C11 C12 H12 120.0 . . ?
 C14 C13 C10 121.6(2) . . ?
 C14 C13 C18 119.2(2) . . ?
 C18 C13 C10 119.2(2) . . ?
 C13 C14 H14 119.3 . . ?
 C13 C14 C15 121.4(2) . . ?
 C15 C14 H14 119.3 . . ?
 C14 C15 H15 119.8 . . ?
 C16 C15 C14 120.4(2) . . ?
 C16 C15 H15 119.8 . . ?
 C15 C16 C17 120.1(2) . . ?
 C15 C16 C24 119.4(2) . . ?
 C17 C16 C24 120.5(2) . . ?
 C16 C17 C18 120.0(2) . . ?
 C16 C17 C22 120.0(2) . . ?
 C22 C17 C18 120.0(2) . . ?
 C17 C18 C13 118.8(2) . . ?
 C19 C18 C13 122.3(2) . . ?
 C19 C18 C17 118.9(2) . . ?
 C18 C19 C8 118.4(2) . . ?
 C20 C19 C8 122.2(2) . . ?
 C20 C19 C18 119.4(2) . . ?
 C19 C20 H20 119.4 . . ?
 C19 C20 C21 121.1(2) . . ?
 C21 C20 H20 119.4 . . ?
 C20 C21 H21 119.7 . . ?
 C22 C21 C20 120.6(2) . . ?
 C22 C21 H21 119.7 . . ?
 C17 C22 C23 120.7(2) . . ?
 C21 C22 C17 119.8(2) . . ?
 C21 C22 C23 119.4(2) . . ?
 O3 C23 N2 120.4(2) . . ?
 O3 C23 C22 123.2(2) . . ?
 N2 C23 C22 116.4(2) . . ?
 O4 C24 N2 120.2(2) . . ?
 O4 C24 C16 123.2(2) . . ?
 N2 C24 C16 116.7(2) . . ?
 C26 C25 N2 117.5(2) . . ?
 C30 C25 N2 119.3(2) . . ?
 C30 C25 C26 123.2(2) . . ?
 C25 C26 C34 122.0(2) . . ?
 C27 C26 C25 117.3(3) . . ?
 C27 C26 C34 120.7(2) . . ?
 C26 C27 H27 119.5 . . ?
 C28 C27 C26 121.0(3) . . ?
 C28 C27 H27 119.5 . . ?
 C27 C28 H28 119.8 . . ?
 C29 C28 C27 120.3(3) . . ?
 C29 C28 H28 119.8 . . ?
 C28 C29 H29 119.6 . . ?
 C28 C29 C30 120.9(3) . . ?
 C30 C29 H29 119.6 . . ?
 C25 C30 C29 117.4(2) . . ?
 C25 C30 C31 122.5(2) . . ?
 C29 C30 C31 120.1(2) . . ?
 C30 C31 H31 107.6 . . ?
 C30 C31 C32 111.8(2) . . ?
 C30 C31 C33 111.1(2) . . ?
 C32 C31 H31 107.6 . . ?
 C33 C31 H31 107.6 . . ?
 C33 C31 C32 111.0(3) . . ?
 C31 C32 H32A 109.5 . . ?
 C31 C32 H32B 109.5 . . ?
 C31 C32 H32C 109.5 . . ?
 H32A C32 H32B 109.5 . . ?
 H32A C32 H32C 109.5 . . ?
 H32B C32 H32C 109.5 . . ?
 C31 C33 H33A 109.5 . . ?
 C31 C33 H33B 109.5 . . ?
 C31 C33 H33C 109.5 . . ?
 H33A C33 H33B 109.5 . . ?
 H33A C33 H33C 109.5 . . ?
 H33B C33 H33C 109.5 . . ?
 C26 C34 H34 107.6 . . ?
 C26 C34 C35 113.6(3) . . ?
 C35 C34 H34 107.6 . . ?
 C36 C34 C26 111.4(3) . . ?
 C36 C34 H34 107.6 . . ?
 C36 C34 C35 108.7(2) . . ?
 C34 C35 H35A 109.5 . . ?
 C34 C35 H35B 109.5 . . ?
 C34 C35 H35C 109.5 . . ?
 H35A C35 H35B 109.5 . . ?
 H35A C35 H35C 109.5 . . ?
 H35B C35 H35C 109.5 . . ?
 C34 C36 H36A 109.5 . . ?
 C34 C36 H36B 109.5 . . ?
 C34 C36 H36C 109.5 . . ?
 H36A C36 H36B 109.5 . . ?
 H36A C36 H36C 109.5 . . ?
 H36B C36 H36C 109.5 . . ?
 C42 C41 N1 117.4(2) . . ?
 C42 C41 C46 123.4(2) . . ?
 C46 C41 N1 119.2(2) . . ?
 C41 C42 C50 121.9(2) . . ?
 C43 C42 C41 117.3(3) . . ?
 C43 C42 C50 120.8(2) . . ?
 C42 C43 H43 119.4 . . ?
 C44 C43 C42 121.1(3) . . ?
 C44 C43 H43 119.4 . . ?
 C43 C44 H44 120.0 . . ?
 C43 C44 C45 120.0(3) . . ?
 C45 C44 H44 120.0 . . ?
 C44 C45 H45 119.2 . . ?
 C44 C45 C46 121.5(3) . . ?
 C46 C45 H45 119.2 . . ?
 C41 C46 C47 122.6(2) . . ?
 C45 C46 C41 116.7(3) . . ?
 C45 C46 C47 120.7(3) . . ?
 C46 C47 H47 107.9 . . ?
 C48 C47 C46 111.8(3) . . ?
 C48 C47 H47 107.9 . . ?
 C48 C47 C49 109.4(4) . . ?
 C49 C47 C46 111.9(3) . . ?
 C49 C47 H47 107.9 . . ?
 C47 C48 H48A 109.5 . . ?
 C47 C48 H48B 109.5 . . ?
 C47 C48 H48C 109.5 . . ?
 H48A C48 H48B 109.5 . . ?
 H48A C48 H48C 109.5 . . ?
 H48B C48 H48C 109.5 . . ?
 C47 C49 H49A 109.5 . . ?
 C47 C49 H49B 109.5 . . ?
 C47 C49 H49C 109.5 . . ?
 H49A C49 H49B 109.5 . . ?
 H49A C49 H49C 109.5 . . ?
 H49B C49 H49C 109.5 . . ?
 C42 C50 H50 107.5 . . ?
 C42 C50 C51 111.0(3) . . ?
 C42 C50 C52 113.6(3) . . ?
 C51 C50 H50 107.5 . . ?
 C52 C50 H50 107.5 . . ?
 C52 C50 C51 109.3(3) . . ?
 C50 C51 H51A 109.5 . . ?
 C50 C51 H51B 109.5 . . ?
 C50 C51 H51C 109.5 . . ?
 H51A C51 H51B 109.5 . . ?
 H51A C51 H51C 109.5 . . ?
 H51B C51 H51C 109.5 . . ?
 C50 C52 H52A 109.5 . . ?
 C50 C52 H52B 109.5 . . ?
 C50 C52 H52C 109.5 . . ?
 H52A C52 H52B 109.5 . . ?
 H52A C52 H52C 109.5 . . ?
 H52B C52 H52C 109.5 . . ?
 C38 O5 C39 105.7(5) . . ?
 C39 O5B C38 107.0(3) . . ?
 C40 O6 C37 103.9(5) . . ?
 C37 O6B C40 105.6(4) . . ?
 O6 C37 H37A 110.2 . . ?
 O6 C37 H37B 110.2 . . ?
 O6B C37 H37C 109.6 . . ?
 O6B C37 H37D 109.6 . . ?
 O6B C37 C38 110.2(4) . . ?
 H37A C37 H37B 108.5 . . ?
 H37C C37 H37D 108.1 . . ?
 C38 C37 O6 107.4(4) . . ?
 C38 C37 H37A 110.2 . . ?
 C38 C37 H37B 110.2 . . ?
 C38 C37 H37C 109.6 . . ?
 C38 C37 H37D 109.6 . . ?
 O5 C38 C37 108.2(4) . . ?
 O5 C38 H38A 110.1 . . ?
 O5 C38 H38B 110.1 . . ?
 O5B C38 C37 107.2(4) . . ?
 O5B C38 H38C 110.3 . . ?
 O5B C38 H38D 110.3 . . ?
 C37 C38 H38C 110.3 . . ?
 C37 C38 H38D 110.3 . . ?
 C37 C38 H38A 110.1 . . ?
 C37 C38 H38B 110.1 . . ?
 H38C C38 H38D 108.5 . . ?
 H38A C38 H38B 108.4 . . ?
 O5 C39 H39A 110.5 . . ?
 O5 C39 H39B 110.5 . . ?
 O5B C39 H39C 110.0 . . ?
 O5B C39 H39D 110.0 . . ?
 O5B C39 C40 108.7(4) . . ?
 H39C C39 H39D 108.3 . . ?
 H39A C39 H39B 108.7 . . ?
 C40 C39 O5 106.0(4) . . ?
 C40 C39 H39C 110.0 . . ?
 C40 C39 H39D 110.0 . . ?
 C40 C39 H39A 110.5 . . ?
 C40 C39 H39B 110.5 . . ?
 O6 C40 C39 110.6(4) . . ?
 O6 C40 H40A 109.5 . . ?
 O6 C40 H40B 109.5 . . ?
 O6B C40 C39 108.2(4) . . ?
 O6B C40 H40C 110.1 . . ?
 O6B C40 H40D 110.1 . . ?
 C39 C40 H40C 110.1 . . ?
 C39 C40 H40D 110.1 . . ?
 C39 C40 H40A 109.5 . . ?
 C39 C40 H40B 109.5 . . ?
 H40C C40 H40D 108.4 . . ?
 H40A C40 H40B 108.1 . . ?

loop_
  _geom_torsion_atom_site_label_1
  _geom_torsion_atom_site_label_2
  _geom_torsion_atom_site_label_3
  _geom_torsion_atom_site_label_4
  _geom_torsion
  _geom_torsion_site_symmetry_1
  _geom_torsion_site_symmetry_2
  _geom_torsion_site_symmetry_3
  _geom_torsion_site_symmetry_4
  _geom_torsion_publ_flag
 O1 C1 C2 C3 179.5(3) . . . . ?
 O1 C1 C2 C12 -2.1(4) . . . . ?
 N1 C1 C2 C3 -1.8(3) . . . . ?
 N1 C1 C2 C12 176.6(2) . . . . ?
 N1 C41 C42 C43 -180.0(2) . . . . ?
 N1 C41 C42 C50 -1.4(4) . . . . ?
 N1 C41 C46 C45 180.0(2) . . . . ?
 N1 C41 C46 C47 -0.6(4) . . . . ?
 N2 C25 C26 C27 -179.6(2) . . . . ?
 N2 C25 C26 C34 0.9(4) . . . . ?
 N2 C25 C30 C29 179.2(2) . . . . ?
 N2 C25 C30 C31 -0.1(4) . . . . ?
 C1 N1 C5 O2 171.9(2) . . . . ?
 C1 N1 C5 C4 -9.9(4) . . . . ?
 C1 N1 C41 C42 96.0(3) . . . . ?
 C1 N1 C41 C46 -84.3(3) . . . . ?
 C1 C2 C3 C4 -3.4(3) . . . . ?
 C1 C2 C3 C9 176.9(2) . . . . ?
 C1 C2 C12 C11 -176.6(2) . . . . ?
 C2 C3 C4 C5 2.4(3) . . . . ?
 C2 C3 C4 C6 -179.6(2) . . . . ?
 C2 C3 C9 C8 -179.7(2) . . . . ?
 C2 C3 C9 C10 -0.1(3) . . . . ?
 C3 C2 C12 C11 1.9(4) . . . . ?
 C3 C4 C5 O2 -177.9(2) . . . . ?
 C3 C4 C5 N1 3.9(3) . . . . ?
 C3 C4 C6 C7 -0.5(4) . . . . ?
 C3 C9 C10 C11 1.4(3) . . . . ?
 C3 C9 C10 C13 -178.6(2) . . . . ?
 C4 C3 C9 C8 0.6(3) . . . . ?
 C4 C3 C9 C10 -179.8(2) . . . . ?
 C4 C6 C7 C8 0.2(4) . . . . ?
 C5 N1 C1 O1 -172.4(2) . . . . ?
 C5 N1 C1 C2 8.9(3) . . . . ?
 C5 N1 C41 C42 -82.8(3) . . . . ?
 C5 N1 C41 C46 96.9(3) . . . . ?
 C5 C4 C6 C7 177.5(2) . . . . ?
 C6 C4 C5 O2 4.0(4) . . . . ?
 C6 C4 C5 N1 -174.2(2) . . . . ?
 C6 C7 C8 C9 0.5(4) . . . . ?
 C6 C7 C8 C19 -179.3(2) . . . . ?
 C7 C8 C9 C3 -0.9(3) . . . . ?
 C7 C8 C9 C10 179.5(2) . . . . ?
 C7 C8 C19 C18 -179.0(2) . . . . ?
 C7 C8 C19 C20 0.6(4) . . . . ?
 C8 C9 C10 C11 -179.0(2) . . . . ?
 C8 C9 C10 C13 1.0(3) . . . . ?
 C8 C19 C20 C21 -176.8(2) . . . . ?
 C9 C3 C4 C5 -177.9(2) . . . . ?
 C9 C3 C4 C6 0.1(3) . . . . ?
 C9 C8 C19 C18 1.3(3) . . . . ?
 C9 C8 C19 C20 -179.1(2) . . . . ?
 C9 C10 C11 C12 -1.1(4) . . . . ?
 C9 C10 C13 C14 178.9(2) . . . . ?
 C9 C10 C13 C18 -1.8(3) . . . . ?
 C10 C11 C12 C2 -0.6(4) . . . . ?
 C10 C13 C14 C15 178.3(2) . . . . ?
 C10 C13 C18 C17 -177.2(2) . . . . ?
 C10 C13 C18 C19 2.5(3) . . . . ?
 C11 C10 C13 C14 -1.1(4) . . . . ?
 C11 C10 C13 C18 178.2(2) . . . . ?
 C12 C2 C3 C4 178.1(2) . . . . ?
 C12 C2 C3 C9 -1.5(4) . . . . ?
 C13 C10 C11 C12 178.9(2) . . . . ?
 C13 C14 C15 C16 -0.5(4) . . . . ?
 C13 C18 C19 C8 -2.2(3) . . . . ?
 C13 C18 C19 C20 178.2(2) . . . . ?
 C14 C13 C18 C17 2.0(3) . . . . ?
 C14 C13 C18 C19 -178.2(2) . . . . ?
 C14 C15 C16 C17 0.9(4) . . . . ?
 C14 C15 C16 C24 -178.1(2) . . . . ?
 C15 C16 C17 C18 0.2(3) . . . . ?
 C15 C16 C17 C22 179.9(2) . . . . ?
 C15 C16 C24 O4 -6.8(4) . . . . ?
 C15 C16 C24 N2 171.5(2) . . . . ?
 C16 C17 C18 C13 -1.7(3) . . . . ?
 C16 C17 C18 C19 178.6(2) . . . . ?
 C16 C17 C22 C21 -176.0(2) . . . . ?
 C16 C17 C22 C23 5.5(3) . . . . ?
 C17 C16 C24 O4 174.2(2) . . . . ?
 C17 C16 C24 N2 -7.5(3) . . . . ?
 C17 C18 C19 C8 177.5(2) . . . . ?
 C17 C18 C19 C20 -2.1(3) . . . . ?
 C17 C22 C23 O3 177.5(3) . . . . ?
 C17 C22 C23 N2 -1.0(3) . . . . ?
 C18 C13 C14 C15 -1.0(4) . . . . ?
 C18 C17 C22 C21 3.6(3) . . . . ?
 C18 C17 C22 C23 -174.8(2) . . . . ?
 C18 C19 C20 C21 2.8(4) . . . . ?
 C19 C8 C9 C3 178.9(2) . . . . ?
 C19 C8 C9 C10 -0.7(3) . . . . ?
 C19 C20 C21 C22 -0.2(4) . . . . ?
 C20 C21 C22 C17 -3.0(4) . . . . ?
 C20 C21 C22 C23 175.5(2) . . . . ?
 C21 C22 C23 O3 -0.9(4) . . . . ?
 C21 C22 C23 N2 -179.5(2) . . . . ?
 C22 C17 C18 C13 178.7(2) . . . . ?
 C22 C17 C18 C19 -1.1(3) . . . . ?
 C23 N2 C24 O4 -169.0(2) . . . . ?
 C23 N2 C24 C16 12.6(3) . . . . ?
 C23 N2 C25 C26 -97.8(3) . . . . ?
 C23 N2 C25 C30 82.7(3) . . . . ?
 C24 N2 C23 O3 172.9(2) . . . . ?
 C24 N2 C23 C22 -8.5(3) . . . . ?
 C24 N2 C25 C26 84.3(3) . . . . ?
 C24 N2 C25 C30 -95.1(3) . . . . ?
 C24 C16 C17 C18 179.2(2) . . . . ?
 C24 C16 C17 C22 -1.1(3) . . . . ?
 C25 N2 C23 O3 -4.8(4) . . . . ?
 C25 N2 C23 C22 173.8(2) . . . . ?
 C25 N2 C24 O4 8.7(3) . . . . ?
 C25 N2 C24 C16 -169.7(2) . . . . ?
 C25 C26 C27 C28 0.5(5) . . . . ?
 C25 C26 C34 C35 -152.6(3) . . . . ?
 C25 C26 C34 C36 84.2(3) . . . . ?
 C25 C30 C31 C32 -129.1(3) . . . . ?
 C25 C30 C31 C33 106.3(3) . . . . ?
 C26 C25 C30 C29 -0.2(4) . . . . ?
 C26 C25 C30 C31 -179.5(3) . . . . ?
 C26 C27 C28 C29 -0.4(5) . . . . ?
 C27 C26 C34 C35 28.0(4) . . . . ?
 C27 C26 C34 C36 -95.2(3) . . . . ?
 C27 C28 C29 C30 0.0(5) . . . . ?
 C28 C29 C30 C25 0.3(4) . . . . ?
 C28 C29 C30 C31 179.6(3) . . . . ?
 C29 C30 C31 C32 51.6(4) . . . . ?
 C29 C30 C31 C33 -73.0(4) . . . . ?
 C30 C25 C26 C27 -0.2(4) . . . . ?
 C30 C25 C26 C34 -179.6(3) . . . . ?
 C34 C26 C27 C28 179.9(3) . . . . ?
 C41 N1 C1 O1 8.9(4) . . . . ?
 C41 N1 C1 C2 -169.8(2) . . . . ?
 C41 N1 C5 O2 -9.4(4) . . . . ?
 C41 N1 C5 C4 168.9(2) . . . . ?
 C41 C42 C43 C44 0.3(4) . . . . ?
 C41 C42 C50 C51 -83.5(3) . . . . ?
 C41 C42 C50 C52 152.9(3) . . . . ?
 C41 C46 C47 C48 -109.3(4) . . . . ?
 C41 C46 C47 C49 127.6(4) . . . . ?
 C42 C41 C46 C45 -0.3(4) . . . . ?
 C42 C41 C46 C47 179.1(3) . . . . ?
 C42 C43 C44 C45 -0.9(5) . . . . ?
 C43 C42 C50 C51 95.0(3) . . . . ?
 C43 C42 C50 C52 -28.7(4) . . . . ?
 C43 C44 C45 C46 0.9(5) . . . . ?
 C44 C45 C46 C41 -0.3(4) . . . . ?
 C44 C45 C46 C47 -179.7(3) . . . . ?
 C45 C46 C47 C48 70.1(5) . . . . ?
 C45 C46 C47 C49 -53.0(5) . . . . ?
 C46 C41 C42 C43 0.3(4) . . . . ?
 C46 C41 C42 C50 178.8(3) . . . . ?
 C50 C42 C43 C44 -178.2(3) . . . . ?
 O5 C39 C40 O6 68.2(6) . . . . ?
 O5B C39 C40 O6B -63.8(5) . . . . ?
 O6 C37 C38 O5 -66.2(5) . . . . ?
 O6B C37 C38 O5B 65.9(5) . . . . ?
 C37 O6 C40 C39 -66.3(6) . . . . ?
 C37 O6B C40 C39 63.1(5) . . . . ?
 C38 O5 C39 C40 -64.4(6) . . . . ?
 C38 O5B C39 C40 63.4(5) . . . . ?
 C39 O5 C38 C37 65.7(5) . . . . ?
 C39 O5B C38 C37 -62.5(5) . . . . ?
 C40 O6 C37 C38 63.8(6) . . . . ?
 C40 O6B C37 C38 -64.6(5) . . . . ?

_shelx_res_file
;
TITL yang02-needle_a.res in Pca2(1)
    yang02-needle.res
    created by SHELXL-2017/1 at 18:39:54 on 27-Aug-2022
REM Old TITL yang02-needle in Pbcm
REM SHELXT solution in Pca2(1)
REM R1 0.108, Rweak 0.011, Alpha 0.001, Orientation a'=b, b'=a, c'=-c
REM Flack x = 0.451 ( 0.105 ) from Parsons' quotients
REM Formula found by SHELXT: C56 N2 O4
CELL 1.54184 16.8641 8.4415 29.1222 90 90 90
ZERR 4 0.0003 0.0002 0.0005 0 0 0
LATT -1
SYMM -X,-Y,0.5+Z
SYMM 0.5+X,-Y,+Z
SYMM 0.5-X,+Y,0.5+Z
SFAC C H N O
UNIT 208 200 8 24

L.S. 20
PLAN  6
SIZE 0.1 0.12 0.14
CONF
BOND $H
LIST 4
MORE -1
fmap 2
ACTA
REM <olex2.extras>
REM <HklSrc "%.\\yang02-needle.hkl">
REM </olex2.extras>

WGHT    0.071600    0.580200
EXTI    0.000667
FVAR       0.35481   0.42811
O1    4    0.513346    0.030563    0.312311    11.00000    0.03927    0.04779 =
         0.02273   -0.00651    0.00068   -0.01178
O2    4    0.335181   -0.060031    0.426034    11.00000    0.03038    0.04444 =
         0.02855   -0.00477    0.00232   -0.01182
O3    4    0.753077    0.504544    0.683957    11.00000    0.04410    0.04708 =
         0.02050   -0.00560    0.00084   -0.00901
O4    4    0.938256    0.563996    0.572505    11.00000    0.02916    0.04381 =
         0.03064   -0.00573    0.00005   -0.01015
N1    3    0.428367   -0.029141    0.370214    11.00000    0.02590    0.02475 =
         0.02295   -0.00331   -0.00264   -0.00362
N2    3    0.841575    0.551320    0.626659    11.00000    0.02795    0.02361 =
         0.02253   -0.00156   -0.00269   -0.00286
C1    1    0.497906    0.038420    0.352930    11.00000    0.02868    0.02536 =
         0.02435   -0.00249   -0.00247   -0.00008
C2    1    0.550909    0.115139    0.386848    11.00000    0.02796    0.02203 =
         0.02298   -0.00107   -0.00216   -0.00033
C3    1    0.529624    0.121956    0.433530    11.00000    0.02473    0.01879 =
         0.02415   -0.00017   -0.00157    0.00246
C4    1    0.455527    0.063357    0.448282    11.00000    0.02434    0.02256 =
         0.02345   -0.00118   -0.00084   -0.00018
C5    1    0.400690   -0.011541    0.415184    11.00000    0.02802    0.02403 =
         0.02483   -0.00074   -0.00264    0.00084
C6    1    0.434690    0.071207    0.493933    11.00000    0.02587    0.03310 =
         0.02531   -0.00223    0.00119   -0.00401
AFIX  43
H6    2    0.385588    0.033175    0.503408    11.00000   -1.20000
AFIX   0
C7    1    0.486794    0.135863    0.526048    11.00000    0.02759    0.03287 =
         0.02208   -0.00426    0.00287   -0.00091
AFIX  43
H7    2    0.471771    0.139808    0.556754    11.00000   -1.20000
AFIX   0
C8    1    0.560500    0.194480    0.513358    11.00000    0.02527    0.02227 =
         0.02319   -0.00212    0.00066    0.00203
C9    1    0.582929    0.189083    0.466054    11.00000    0.02468    0.02254 =
         0.02314   -0.00144   -0.00216    0.00163
C10   1    0.657439    0.248286    0.450639    11.00000    0.02600    0.02299 =
         0.02029   -0.00087   -0.00019    0.00238
C11   1    0.675078    0.241804    0.404098    11.00000    0.02523    0.03359 =
         0.02288   -0.00003    0.00239   -0.00234
AFIX  43
H11   2    0.723272    0.281966    0.393831    11.00000   -1.20000
AFIX   0
C12   1    0.622376    0.176585    0.372292    11.00000    0.02959    0.02987 =
         0.02047   -0.00124    0.00130    0.00043
AFIX  43
H12   2    0.635496    0.174601    0.341280    11.00000   -1.20000
AFIX   0
C13   1    0.712852    0.313983    0.484549    11.00000    0.02242    0.02383 =
         0.02216   -0.00188   -0.00057    0.00104
C14   1    0.787052    0.371159    0.471783    11.00000    0.02691    0.03541 =
         0.02224   -0.00294    0.00339   -0.00269
AFIX  43
H14   2    0.802551    0.365127    0.441186    11.00000   -1.20000
AFIX   0
C15   1    0.838597    0.437248    0.503893    11.00000    0.02332    0.03408 =
         0.02723   -0.00391    0.00302   -0.00421
AFIX  43
H15   2    0.888049    0.473901    0.494572    11.00000   -1.20000
AFIX   0
C16   1    0.816768    0.448659    0.549390    11.00000    0.02473    0.02022 =
         0.02528    0.00021   -0.00225    0.00053
C17   1    0.742347    0.391282    0.563908    11.00000    0.02529    0.01990 =
         0.02215    0.00025   -0.00051    0.00215
C18   1    0.689720    0.321034    0.531600    11.00000    0.02443    0.02025 =
         0.02143   -0.00115   -0.00077    0.00376
C19   1    0.615736    0.260866    0.547302    11.00000    0.02437    0.02292 =
         0.02320   -0.00029   -0.00211    0.00321
C20   1    0.597732    0.267356    0.593804    11.00000    0.02434    0.03197 =
         0.02547    0.00001   -0.00040    0.00060
AFIX  43
H20   2    0.550378    0.223925    0.604262    11.00000   -1.20000
AFIX   0
C21   1    0.649543    0.338013    0.625139    11.00000    0.02987    0.03093 =
         0.01827   -0.00027    0.00056    0.00153
AFIX  43
H21   2    0.636220    0.341311    0.656113    11.00000   -1.20000
AFIX   0
C22   1    0.720122    0.402795    0.610606    11.00000    0.02626    0.02461 =
         0.02236   -0.00005   -0.00275    0.00296
C23   1    0.770827    0.487072    0.643860    11.00000    0.03134    0.02500 =
         0.02346    0.00130   -0.00235    0.00010
C24   1    0.871268    0.523528    0.582373    11.00000    0.02707    0.02581 =
         0.02277    0.00085   -0.00184    0.00018
C25   1    0.889398    0.649143    0.657091    11.00000    0.03097    0.02627 =
         0.02119   -0.00298   -0.00161   -0.00254
C26   1    0.881027    0.813683    0.653485    11.00000    0.04165    0.02523 =
         0.02499   -0.00231    0.00178    0.00127
C27   1    0.927324    0.906910    0.682516    11.00000    0.05471    0.02781 =
         0.03460   -0.00569   -0.00449   -0.00464
AFIX  43
H27   2    0.922960    1.016638    0.681185    11.00000   -1.20000
AFIX   0
C28   1    0.979906    0.838279    0.713419    11.00000    0.05015    0.03826 =
         0.03524   -0.00891   -0.00743   -0.01142
AFIX  43
H28   2    1.010574    0.902272    0.732401    11.00000   -1.20000
AFIX   0
C29   1    0.986816    0.675909    0.716067    11.00000    0.04124    0.03927 =
         0.02714   -0.00060   -0.00941   -0.00668
AFIX  43
H29   2    1.022205    0.631321    0.736871    11.00000   -1.20000
AFIX   0
C30   1    0.941104    0.576787    0.687751    11.00000    0.03611    0.02963 =
         0.02502   -0.00051   -0.00255   -0.00340
C31   1    0.949924    0.398101    0.690950    11.00000    0.03780    0.03099 =
         0.03102    0.00309   -0.00910   -0.00208
AFIX  13
H31   2    0.906795    0.350512    0.673107    11.00000   -1.20000
AFIX   0
C32   1    0.942047    0.339345    0.740397    11.00000    0.06628    0.03706 =
         0.04509    0.01008    0.00137    0.00191
AFIX 137
H32A  2    0.986157    0.376887    0.758168    11.00000   -1.50000
H32B  2    0.941470    0.225631    0.740679    11.00000   -1.50000
H32C  2    0.893568    0.378622    0.753395    11.00000   -1.50000
AFIX   0
C33   1    1.027806    0.343586    0.669801    11.00000    0.06155    0.03591 =
         0.05847    0.00375    0.01207    0.00747
AFIX 137
H33A  2    1.030694    0.379086    0.638528    11.00000   -1.50000
H33B  2    1.030555    0.230031    0.670637    11.00000   -1.50000
H33C  2    1.071295    0.387252    0.686895    11.00000   -1.50000
AFIX   0
C34   1    0.823343    0.889627    0.619690    11.00000    0.04489    0.02933 =
         0.03019   -0.00210   -0.00244    0.00861
AFIX  13
H34   2    0.821165    0.821979    0.592371    11.00000   -1.20000
AFIX   0
C35   1    0.848294    1.055817    0.604090    11.00000    0.06961    0.02990 =
         0.03955    0.00404    0.00538    0.01012
AFIX 137
H35A  2    0.814710    1.089745    0.579357    11.00000   -1.50000
H35B  2    0.902377    1.053383    0.593829    11.00000   -1.50000
H35C  2    0.843414    1.128362    0.629319    11.00000   -1.50000
AFIX   0
C36   1    0.739910    0.898650    0.639555    11.00000    0.04920    0.05223 =
         0.04912    0.00703    0.00072    0.01141
AFIX 137
H36A  2    0.739752    0.968341    0.665605    11.00000   -1.50000
H36B  2    0.723223    0.794861    0.648947    11.00000   -1.50000
H36C  2    0.704171    0.938434    0.616634    11.00000   -1.50000
AFIX   0
C41   1    0.381477   -0.128398    0.339529    11.00000    0.02990    0.02972 =
         0.02362   -0.00516   -0.00075   -0.00683
C42   1    0.393571   -0.291791    0.341778    11.00000    0.03198    0.02974 =
         0.02846   -0.00537    0.00225   -0.00066
C43   1    0.348736   -0.386502    0.312400    11.00000    0.04171    0.03024 =
         0.03992   -0.01046   -0.00016   -0.00465
AFIX  43
H43   2    0.355204   -0.495882    0.313144    11.00000   -1.20000
AFIX   0
C44   1    0.294772   -0.320535    0.282148    11.00000    0.04184    0.04161 =
         0.03801   -0.01492   -0.00439   -0.01023
AFIX  43
H44   2    0.265845   -0.385321    0.262487    11.00000   -1.20000
AFIX   0
C45   1    0.283847   -0.157722    0.281166    11.00000    0.03673    0.04077 =
         0.03163   -0.00495   -0.00823   -0.00245
AFIX  43
H45   2    0.246907   -0.114770    0.260986    11.00000   -1.20000
AFIX   0
C46   1    0.326962   -0.056934    0.309731    11.00000    0.03132    0.03432 =
         0.02410   -0.00280    0.00020   -0.00433
C47   1    0.313886    0.120446    0.308257    11.00000    0.03999    0.03096 =
         0.03270   -0.00076   -0.00672    0.00157
AFIX  13
H47   2    0.354998    0.170429    0.327117    11.00000   -1.20000
AFIX   0
C48   1    0.234591    0.165909    0.327830    11.00000    0.09682    0.04566 =
         0.17473    0.01445    0.07608    0.01665
AFIX 137
H48A  2    0.229205    0.279114    0.327402    11.00000   -1.50000
H48B  2    0.230737    0.128491    0.358879    11.00000   -1.50000
H48C  2    0.193199    0.119153    0.309706    11.00000   -1.50000
AFIX   0
C49   1    0.321171    0.184976    0.260270    11.00000    0.17613    0.04217 =
         0.04253    0.00428    0.01413   -0.01441
AFIX 137
H49A  2    0.281321    0.137898    0.241089    11.00000   -1.50000
H49B  2    0.372755    0.160394    0.248286    11.00000   -1.50000
H49C  2    0.314086    0.297799    0.260824    11.00000   -1.50000
AFIX   0
C50   1    0.454592   -0.365027    0.374032    11.00000    0.04684    0.02793 =
         0.03444   -0.00799   -0.00550    0.00544
AFIX  13
H50   2    0.456318   -0.299774    0.401847    11.00000   -1.20000
AFIX   0
C51   1    0.537430   -0.362294    0.352607    11.00000    0.03817    0.05400 =
         0.05898   -0.00048   -0.00633    0.00786
AFIX 137
H51A  2    0.574735   -0.408880    0.373527    11.00000   -1.50000
H51B  2    0.552526   -0.254764    0.346385    11.00000   -1.50000
H51C  2    0.536999   -0.421524    0.324467    11.00000   -1.50000
AFIX   0
C52   1    0.434501   -0.534071    0.388647    11.00000    0.06031    0.03322 =
         0.05037    0.00146    0.00282    0.00955
AFIX 137
H52A  2    0.441579   -0.604333    0.363052    11.00000   -1.50000
H52B  2    0.380393   -0.538520    0.398807    11.00000   -1.50000
H52C  2    0.468901   -0.565624    0.413267    11.00000   -1.50000
AFIX   0

PART 1
O5    4    0.660350    0.885266    0.524888    21.00000    0.08693    0.04438 =
         0.05614    0.00178   -0.00768    0.01234
PART 2
O5B   4    0.691108    0.722653    0.533196   -21.00000    0.05659    0.04706 =
         0.05669    0.00582   -0.01822    0.01363
PART 1
O6    4    0.606471    0.620812    0.473786    21.00000    0.08303    0.04382 =
         0.06608   -0.00090   -0.01567   -0.00026
PART 2
O6B   4    0.579320    0.787590    0.464181   -21.00000    0.06352    0.04739 =
         0.06513    0.00401   -0.02417    0.00996
PART 0
C37   1    0.659324    0.764515    0.454977    11.00000    0.08008    0.11066 =
         0.04543    0.01563    0.01033    0.02974
PART 1
AFIX  23
H37A  2    0.693202    0.728607    0.430153    21.00000   -1.20000
H37B  2    0.625558    0.848671    0.443487    21.00000   -1.20000
AFIX  23
PART 2
H37C  2    0.673744    0.820808    0.427166   -21.00000   -1.20000
H37D  2    0.669473    0.652647    0.450139   -21.00000   -1.20000
AFIX   0
PART 0
C38   1    0.708342    0.823082    0.494055    11.00000    0.04102    0.04882 =
         0.09418    0.02269    0.00085    0.00162
PART 2
AFIX  23
H38C  2    0.764243    0.817372    0.486388   -21.00000   -1.20000
H38D  2    0.695148    0.932350    0.500973   -21.00000   -1.20000
AFIX  23
PART 1
H38A  2    0.738014    0.736228    0.507485    21.00000   -1.20000
H38B  2    0.745682    0.902295    0.483347    21.00000   -1.20000
AFIX   0
PART 0
C39   1    0.608894    0.742822    0.543661    11.00000    0.07355    0.10838 =
         0.05801    0.03274    0.01657    0.02375
PART 2
AFIX  23
H39C  2    0.597646    0.853758    0.549402   -21.00000   -1.20000
H39D  2    0.595353    0.683045    0.571005   -21.00000   -1.20000
AFIX  23
PART 1
H39A  2    0.642824    0.658999    0.555194    21.00000   -1.20000
H39B  2    0.574482    0.778105    0.568313    21.00000   -1.20000
AFIX   0
PART 0
C40   1    0.561355    0.685802    0.504112    11.00000    0.04372    0.05272 =
         0.12592    0.02886   -0.00447    0.00094
PART 2
AFIX  23
H40C  2    0.574692    0.576563    0.497247   -21.00000   -1.20000
H40D  2    0.505272    0.691245    0.511336   -21.00000   -1.20000
AFIX  23
PART 1
H40A  2    0.522446    0.609457    0.514697    21.00000   -1.20000
H40B  2    0.533206    0.774157    0.490408    21.00000   -1.20000
AFIX   0
HKLF 4




REM  yang02-needle_a.res in Pca2(1)
REM R1 =  0.0405 for    6130 Fo > 4sig(Fo)  and  0.0424 for all    6482 data
REM    569 parameters refined using      1 restraints

END

WGHT      0.0716      0.5805

REM Highest difference peak  0.229,  deepest hole -0.173,  1-sigma level  0.041
Q1    1   0.2836  0.0525  0.4285  11.00000  0.05    0.23
Q2    1   0.8959  0.6190  0.6860  11.00000  0.05    0.21
Q3    1   0.6831  0.2855  0.4689  11.00000  0.05    0.20
Q4    1   0.6716  0.6257  0.6119  11.00000  0.05    0.20
Q5    1   0.4762 -0.1160  0.4333  11.00000  0.05    0.20
Q6    1   0.9888  0.4365  0.5699  11.00000  0.05    0.20
;
_shelx_res_checksum                35221
_shelx_hkl_file
;
   0   0   2 2346.08   79.09
   0   0   3    0.23    0.14
   0   0   4  591.46   20.17
   0   0   5    0.98    0.33
   0   0   6 3132.64  105.83
   0   0   7    0.12    0.36
   0   0   8   39.09    1.82
   0   0   9    0.21    0.35
   0   0  10   19.55    1.20
   0   0  11    2.48    0.49
   0   0  12  159.87    6.10
   0   0  13    0.30    0.73
   0   0  13   -0.08    0.40
   0   0  14  210.65    7.95
   0   0  14  214.01    8.69
   0   0  15    0.40    0.47
   0   0  15    0.36    0.75
   0   0  16  513.41   19.15
   0   0  17    1.66    0.91
   0   0  18   88.28    4.78
   0   0  19   -0.24    0.76
   0   0  19    0.14    0.34
   0   0  20   35.52    2.86
   0   0  20   35.59    1.69
   0   0  21    0.13    0.88
   0   0  21    0.22    0.39
   0   0  22   69.41    2.94
   0   0  22   73.69    4.49
   0   0  23    0.87    0.93
   0   0  23    0.18    0.46
   0   0  24   25.83    1.51
   0   0  24   31.16    2.79
   0   0  25    0.27    0.45
   0   0  25   -0.15    0.94
   0   0  26  239.11    8.77
   0   0  27    0.63    0.60
   0   0  28    4.10    0.73
   0   0  29    0.45    0.57
   0   0  30  173.36    6.50
   0   0 -31    0.73    0.56
   0   0 -32  360.18   12.71
   0   0  33    0.22    0.47
   0   0  34   76.66    3.03
   0   0  35   -0.11    0.32
   1   0   0    0.11    0.07
   1   0  -1    3.22    0.19
   1   0   1    0.01    0.08
   1   0   2    0.02    0.12
   1   0   3    0.07    0.18
   1   0   4    0.24    0.21
   1   0   4   -0.23    0.27
   1   0   5    0.07    0.40
   1   0   5    0.23    0.27
   1   0   6    0.17    0.37
   1   0   6   -0.03    0.51
   1   0   7    0.07    0.61
   1   0   7    0.43    0.43
   1   0   8    0.49    0.52
   1   0   8   -0.10    0.33
   1   0   9   -0.08    0.30
   1   0   9   -0.14    0.51
  -1   0   9    0.33    0.39
   1   0  10    0.57    0.58
  -1   0  10   -0.14    0.39
   1   0  10    0.09    0.33
   1   0  11    0.29    0.58
   1   0  11    0.30    0.34
  -1   0  11    0.04    0.36
   1   0  12    0.11    0.38
  -1   0  12    0.63    0.45
   1   0  12    0.45    0.66
   1   0  13    0.15    0.40
   1   0  13   -0.35    0.67
  -1   0  13    0.45    0.50
   1   0  14    0.31    0.77
  -1   0  14    0.05    0.44
  -1   0  15   -0.10    0.44
   1   0  15    0.51    0.74
   1   0  16    0.37    0.75
  -1   0  16   -0.10    0.83
   1   0  17    0.30    0.75
  -1   0  17    0.87    0.86
  -1   0  18   -0.12    0.82
   1   0  18   -0.32    0.75
  -1   0  19    0.25    0.90
   1   0  19   -0.02    0.33
   1   0  19   -0.23    0.74
  -1   0  19    0.36    0.32
   1   0  20    0.24    0.76
   1   0  20    0.19    0.37
  -1   0  20   -0.39    0.85
  -1   0  20    0.02    0.32
   1   0  21   -0.13    0.86
  -1   0  21   -0.16    0.37
  -1   0  21    0.14    0.87
  -1   0  22    0.72    1.01
   1   0  22   -0.21    0.45
   1   0  22    0.54    0.87
  -1   0  22   -0.28    0.42
   1   0  23   -0.57    0.91
   1   0  23    0.03    0.45
  -1   0  23   -0.06    0.45
  -1   0  23    0.30    0.97
  -1   0  24   -0.62    0.94
   1   0  24   -0.44    1.04
  -1   0  24    0.47    0.46
   1   0  24    0.40    0.54
   1   0  25    0.45    0.92
   1   0  25    0.21    0.51
  -1   0  25   -0.23    0.46
  -1   0  25   -0.47    0.92
  -1   0  26    0.60    0.52
   1   0  26    0.92    0.63
   1   0  27   -0.07    0.62
  -1   0  27    0.51    0.54
   1   0  28    0.36    0.53
  -1   0  28    0.20    0.54
   1   0  29    0.17    0.57
  -1   0  29    0.43    0.54
   1   0 -30    0.42    0.54
   1   0  30   -0.30    0.56
  -1   0  30    0.03    0.50
  -1   0 -31    0.23    0.57
   1   0 -31    0.96    0.56
  -1   0  31    0.09    0.47
   1   0 -32    0.59    0.50
   1   0  32    0.96    0.56
  -1   0 -32    0.65    0.58
   1   0  33   -0.03    0.45
   1   0  34    0.02    0.42
  -1   0  34   -0.14    0.41
   1   0  35    0.14    0.34
  -1   0  35   -0.09    0.33
   2   0   0   95.69    3.44
   2   0   1   37.22    1.50
   2   0  -1   37.15    1.50
   2   0   1   39.56    1.48
   2   0   2 1591.80   54.36
   2   0   2 1628.78   54.31
   2   0  -2 1596.03   54.36
   2   0   3 8445.29  285.97
   2   0  -3 8527.91  285.95
   2   0   4 1431.82   49.15
   2   0  -4 1465.72   49.15
   2   0   5   67.11    2.73
   2   0   6 6766.53  228.28
   2   0   7  335.72   11.96
   2   0   8 1234.32   42.32
   2   0   9   31.59    1.81
   2   0  10  153.84    6.12
   2   0  11 1129.40   39.11
  -2   0  12  170.19    6.71
   2   0  12  175.65    6.98
   2   0  13 1332.96   44.61
  -2   0  13 1249.98   44.20
  -2   0  14 1324.62   46.34
   2   0  14 1379.16   46.83
  -2   0  15  573.18   20.80
   2   0  15  608.61   21.38
   2   0  16   44.79    2.83
   2   0  17   94.34    4.78
  -2   0  18    0.24    0.82
   2   0  18    3.36    0.98
   2   0  19   67.18    3.98
  -2   0  19   63.89    2.70
   2   0  19   72.03    2.83
  -2   0  19   72.53    4.31
   2   0  20   47.74    2.20
  -2   0  20   49.64    2.12
  -2   0  20   51.50    3.64
   2   0  20   51.49    3.39
  -2   0  21    5.74    0.61
  -2   0  21    3.15    1.14
   2   0  21    4.89    1.22
   2   0  21    5.17    0.68
   2   0  22   27.87    1.51
   2   0  22   26.69    2.50
  -2   0  22   26.77    1.43
  -2   0  22   32.19    2.85
  -2   0  23   67.75    2.85
  -2   0  23   65.05    4.43
   2   0  23   66.27    2.90
   2   0  23   73.60    4.43
   2   0  24   22.69    2.38
  -2   0  24   22.38    1.32
   2   0  24   22.70    1.41
  -2   0  24   24.20    2.54
  -2   0  25   98.01    5.62
   2   0  25   89.51    3.75
   2   0  25   91.87    5.28
  -2   0  25   90.13    3.68
   2   0  26   16.60    1.22
  -2   0  26   15.73    1.12
  -2   0  27   70.96    2.99
   2   0  27   66.78    3.05
  -2   0  28    4.85    0.70
   2   0  28    5.32    0.81
   2   0  29   89.34    3.75
  -2   0  29   92.01    3.70
  -2   0 -30    4.91    0.80
   2   0  30    5.84    0.80
  -2   0  30    4.82    0.67
   2   0 -30    6.11    0.73
   2   0  31    9.70    0.91
  -2   0 -31    9.70    0.93
  -2   0  31    9.68    0.82
   2   0 -31    8.54    0.80
   2   0  32    4.15    0.65
  -2   0 -32    5.00    0.73
   2   0  33   10.05    0.82
   2   0  34    0.35    0.41
  -2   0  35   23.38    1.16
   2   0  35   25.26    1.16
   3   0   0    1.07    0.33
   3   0   1    0.19    0.35
   3   0   1   -0.05    0.32
   3   0  -1   -0.02    0.33
   3   0   2    0.57    0.40
   3   0  -2   -0.02    0.36
   3   0   3    0.28    0.44
   3   0  -3    0.24    0.41
   3   0   3    0.36    0.41
   3   0   4    0.33    0.44
   3   0  -4   -0.05    0.43
   3   0   4    0.72    0.44
   3   0   5    0.64    0.48
   3   0  -5    0.18    0.53
   3   0  -6    0.03    0.46
   3   0   6    0.21    0.39
   3   0   7   -0.21    0.43
   3   0  -7    0.17    0.43
   3   0   8    0.04    0.44
   3   0   9    0.27    0.50
   3   0  10   -0.05    0.46
   3   0  11    0.11    0.55
   3   0  12   -0.18    0.59
   3   0  13    0.07    0.66
   3   0  14    0.15    0.67
  -3   0  14   -0.60    0.56
  -3   0  15    0.12    0.55
   3   0  15   -0.16    0.65
   3   0  16    0.17    0.72
   3   0  17   -0.28    0.68
   3   0  18    0.81    0.78
   3   0  19   -0.11    0.70
  -3   0  19    0.06    0.29
  -3   0  20   -0.09    0.32
  -3   0  20   -0.28    0.96
   3   0  20   -0.12    0.74
   3   0  21   -0.25    0.79
  -3   0  21    0.34    0.34
   3   0  22   -0.13    0.83
   3   0  22    0.13    0.48
  -3   0  22    0.62    1.03
  -3   0  22    0.03    0.36
   3   0  23   -0.54    0.92
   3   0  23   -0.10    0.54
  -3   0  23   -0.03    0.43
  -3   0  23    0.48    0.96
   3   0  24   -0.70    0.92
   3   0  24    0.29    0.57
  -3   0  24   -0.20    0.46
  -3   0  24    0.16    0.98
   3   0  25   -0.11    0.58
  -3   0  25    0.03    0.48
   3   0  26    0.30    0.64
  -3   0  26   -0.12    0.47
   3   0  27    0.23    0.64
  -3   0  27    0.22    0.49
   3   0  28   -0.07    0.60
  -3   0  28    0.31    0.47
   3   0  28    0.69    0.69
  -3   0  29   -0.09    0.44
   3   0  29    0.23    0.62
  -3   0 -30   -0.03    0.59
  -3   0  30   -0.25    0.43
   3   0  30    0.11    0.57
  -3   0 -31   -0.45    0.58
   3   0  31    0.13    0.53
  -3   0  31    0.05    0.41
  -3   0 -32   -0.12    0.55
   3   0  32    0.23    0.48
   3   0  33    0.22    0.44
   3   0  34   -0.02    0.36
  -3   0  35    0.14    0.32
   3   0  35    0.20    0.28
   4   0   0   12.81    0.86
   4   0   1 1882.96   64.17
   4   0  -1 1870.91   64.17
   4   0   1 1921.44   64.11
   4   0   2 1882.72   62.78
   4   0  -2 1860.66   62.86
   4   0   2 1812.66   62.84
   4   0  -3 2986.23   99.66
   4   0   3 2892.89   99.64
   4   0   3 2956.22   99.56
   4   0   4 1021.22   34.77
   4   0   4 1020.96   34.89
   4   0  -4 1016.14   34.87
   4   0   5  859.32   29.23
   4   0  -5  823.33   29.19
   4   0   5  864.38   29.09
   4   0   6  679.80   23.31
   4   0  -6  686.04   23.48
   4   0   6  665.12   23.46
   4   0  -7 1246.70   41.30
   4   0   7 1204.55   41.05
   4   0   7 1161.81   41.25
   4   0  -8   12.07    1.04
   4   0   8   11.71    1.01
   4   0   9  538.63   19.05
   4   0  10  207.52    7.96
   4   0  11    8.26    1.01
   4   0  12   39.24    2.33
   4   0  13   24.55    1.82
   4   0  14  122.14    5.43
   4   0  15    1.04    0.66
   4   0  16   62.43    3.49
   4   0  17  211.51    8.83
   4   0  18   18.29    1.79
   4   0  18   15.74    1.04
  -4   0  19   34.73    1.60
   4   0  19   38.29    1.80
   4   0  19   35.17    2.64
   4   0  20   60.17    2.63
  -4   0  20   59.19    2.45
   4   0  20   62.06    3.79
  -4   0  21  107.71    6.08
   4   0  21  108.86    4.34
  -4   0  21  107.36    4.14
   4   0  21  120.37    5.80
  -4   0  22   38.83    3.40
  -4   0  22   41.53    1.89
   4   0  22   45.47    3.22
  -4   0  23  246.10    8.89
  -4   0  23  257.65   11.35
  -4   0  24  572.78   20.08
  -4   0  24  618.87   22.84
  -4   0  25 1338.02   45.64
   4   0  26  173.73    6.52
  -4   0  26  164.79    6.25
  -4   0  27  202.68    7.44
   4   0  27  204.26    7.68
  -4   0  28  339.78   12.06
   4   0  28  342.60   12.27
   4   0  29    8.73    0.93
   4   0  30   15.58    1.17
   4   0  31   36.56    1.83
   4   0  32    3.64    0.60
   4   0  33   24.52    1.28
   4   0  34   36.65    1.60
  -4   0  35    9.76    0.62
   5   0   0    0.23    0.37
   5   0  -1    0.03    0.36
   5   0   1    0.32    0.43
   5   0  -2    0.25    0.38
   5   0   2    0.23    0.39
   5   0   2    0.09    0.37
   5   0  -3    0.32    0.39
   5   0   3   -0.06    0.40
   5   0   3   -0.08    0.38
   5   0  -4    0.34    0.42
   5   0   4    0.30    0.40
   5   0   4    0.10    0.39
   5   0   5    0.14    0.39
   5   0  -5    0.29    0.42
   5   0   5    0.04    0.42
   5   0   6    0.24    0.39
   5   0  -6    0.12    0.45
   5   0   6    0.21    0.41
   5   0  -7    0.66    0.54
   5   0   7   -0.03    0.46
   5   0   7   -0.17    0.44
   5   0  -8    0.48    0.55
   5   0   8    0.14    0.49
   5   0   8    0.34    0.49
   5   0  -9    0.32    0.57
   5   0   9    0.89    0.53
   5   0   9   -0.04    0.47
   5   0  10    0.19    0.54
   5   0  10   -0.11    0.53
   5   0  11    0.36    0.59
   5   0  11   -0.27    0.54
   5   0  12   -0.12    0.53
   5   0  12    0.26    0.57
   5   0  13   -0.13    0.54
   5   0  13   -0.21    0.59
   5   0  14    0.18    0.51
   5   0  14    0.30    0.58
   5   0  15    0.33    0.66
   5   0  15   -0.14    0.47
   5   0  16   -0.18    0.62
   5   0  17   -0.29    0.67
   5   0  17    0.30    0.38
   5   0  18    0.03    0.41
   5   0  18   -0.10    0.66
   5   0  19    0.43    0.75
   5   0  19   -0.09    0.44
   5   0  20    0.23    0.77
   5   0  20   -0.13    0.44
   5   0  21   -0.41    0.54
   5   0  21    0.32    0.51
   5   0  21    0.48    0.75
   5   0  22   -0.47    0.60
   5   0  22    0.33    0.59
   5   0  23    0.92    0.63
  -5   0  23    0.35    1.15
   5   0  23    0.69    0.66
   5   0  24    0.83    0.68
   5   0  24    0.74    0.62
   5   0  25    0.21    0.67
   5   0  25    0.58    0.66
   5   0  26    0.25    0.68
   5   0  27    0.49    0.64
   5   0  28    0.08    0.61
  -5   0 -28    0.85    0.73
  -5   0 -29    0.07    0.62
   5   0  29    0.40    0.57
   5   0  30    0.03    0.55
  -5   0 -30   -0.20    0.58
   5   0  31    0.03    0.49
   5   0  32   -0.31    0.44
   5   0  33    0.21    0.37
   5   0  34    0.30    0.28
   6   0   0   -0.21    0.41
   6   0   1  113.34    4.53
   6   0  -1  115.31    4.55
   6   0   2  288.88   10.47
   6   0  -2  290.60   10.49
   6   0   3   48.84    2.35
   6   0  -3   50.41    2.39
   6   0   3   51.00    2.30
   6   0  -4  552.12   18.95
   6   0   4  542.31   18.80
   6   0   4  520.34   18.89
   6   0  -5   10.59    0.99
   6   0   5   12.35    0.97
   6   0   5   11.05    0.98
   6   0   6  996.22   34.71
   6   0  -6 1044.70   34.94
   6   0   6  993.43   34.88
   6   0   7 1988.97   67.18
   6   0  -7 1977.20   67.43
   6   0   7 1950.97   67.35
   6   0   8  202.35    7.40
   6   0  -8  198.44    7.67
   6   0   8  186.50    7.53
   6   0   9  709.14   24.45
   6   0   9  689.60   24.68
   6   0  -9  705.24   24.85
   6   0  10 4209.51  142.69
   6   0  10 4221.04  143.00
   6   0  11 1682.09   57.48
   6   0  11 1680.80   57.86
   6   0  12  408.41   14.62
   6   0  12  405.34   15.03
   6   0  13  670.56   24.30
   6   0  13  686.01   23.84
   6   0  14   93.77    4.09
   6   0  14   96.56    4.57
   6   0  15  182.28    7.58
   6   0  15  176.84    6.98
   6   0  16   27.10    1.45
   6   0  16   29.22    1.50
   6   0  16   25.69    2.08
   6   0  17   64.36    2.76
   6   0  17   62.74    2.75
   6   0  17   67.24    3.72
   6   0  18   52.48    2.43
   6   0  18   52.44    2.38
   6   0  18   55.59    3.35
   6   0  19  103.77    4.25
   6   0  19  114.97    5.47
   6   0  19  106.00    4.24
   6   0  20  288.35   10.53
   6   0  20  296.27   10.58
   6   0  21   65.95    2.96
   6   0  21   67.18    2.97
   6   0  22  909.65   30.60
   6   0  22  862.06   30.53
  -6   0  23  229.96   11.12
   6   0  23  244.89    8.98
   6   0  24    6.47    0.92
   6   0  25   48.68    2.40
   6   0  26  160.04    6.18
   6   0  27   16.89    1.27
  -6   0 -27   18.29    1.31
   6   0  28   84.58    3.45
  -6   0 -28   76.40    3.40
  -6   0 -29   19.38    1.27
   6   0  29   17.34    1.22
   6   0  30   11.44    0.93
  -6   0 -30   10.96    0.96
   6   0  31    0.44    0.47
   6   0  32    3.32    0.52
   6   0  33    2.71    0.45
   7   0   0    0.04    0.47
   7   0   1   -0.04    0.46
   7   0  -1    0.22    0.46
   7   0  -2    0.31    0.50
   7   0   2    0.35    0.44
   7   0  -3    0.09    0.51
   7   0   3    0.13    0.47
   7   0   4    0.37    0.48
   7   0  -4   -0.14    0.53
   7   0   5   -0.33    0.55
   7   0  -5    0.05    0.55
   7   0   5   -0.29    0.61
   7   0  -6    0.05    0.62
   7   0   6    0.25    0.58
   7   0   6    0.17    0.60
   7   0   7   -0.11    0.58
   7   0   7    0.26    0.63
   7   0  -7   -0.06    0.69
   7   0  -8    0.94    0.75
   7   0   8   -0.32    0.61
   7   0   8    0.06    0.60
   7   0   9    1.07    0.64
   7   0  -9   -0.34    0.66
   7   0   9    0.47    0.65
   7   0  10   -0.13    0.59
   7   0  10    0.53    0.61
   7   0 -10    0.14    0.74
   7   0  11   -0.07    0.57
   7   0  11    0.40    0.58
   7   0  12    0.31    0.62
   7   0  12   -0.29    0.62
   7   0  13    0.11    0.56
   7   0  13    0.31    0.62
   7   0  14   -0.57    0.72
   7   0  14    0.33    0.57
   7   0  15    0.11    0.57
   7   0  15    0.35    0.66
   7   0  15   -0.18    0.44
   7   0 -15    0.32    0.55
   7   0  16    0.19    0.68
   7   0  16    0.03    0.42
   7   0  17    0.29    0.70
   7   0  17   -0.43    0.52
   7   0  18   -0.07    0.52
   7   0  19   -0.18    0.57
   7   0  20    0.04    0.56
   7   0  21    0.04    0.64
   7   0  22    0.04    0.65
   7   0  23   -0.20    0.59
   7   0  24    0.28    0.63
   7   0  25    0.36    0.63
  -7   0 -25    0.04    0.64
  -7   0 -26   -0.07    0.57
   7   0  26    0.23    0.62
  -7   0 -27    0.65    0.60
   7   0  27    0.11    0.56
   7   0  28    0.32    0.56
  -7   0 -28   -0.03    0.58
   7   0  29   -0.26    0.52
   7   0  30    0.14    0.48
   7   0  31   -0.02    0.44
   7   0  32    0.19    0.38
   7   0  33    0.18    0.28
   8   0   0  565.53   20.04
   8   0  -1  662.38   23.48
   8   0   1  673.44   23.49
   8   0  -2 1068.55   37.24
   8   0   2 1082.09   37.22
   8   0  -3  688.25   24.32
   8   0   3  693.54   24.29
   8   0   4  726.67   24.99
   8   0  -4  693.60   25.00
   8   0  -5  183.18    7.18
   8   0   5  177.12    7.09
   8   0  -6  138.94    5.72
   8   0   6  131.46    5.58
   8   0   7  314.02   11.97
   8   0  -7  333.52   12.19
   8   0   8  211.66    8.68
   8   0  -8  227.41    8.95
   8   0   8  237.15    8.69
   8   0   9  348.58   12.66
   8   0   9  334.88   12.79
   8   0  -9  348.33   13.06
   8   0 -10  724.04   25.19
   8   0  10  702.25   24.66
   8   0  10  676.95   24.83
   8   0  11  140.59    6.03
   8   0  11  139.47    5.79
   8   0  12  121.40    5.11
   8   0  12  116.50    5.35
   8   0  13  312.37   12.31
   8   0  13  312.06   11.95
   8   0 -13  330.53   11.57
   8   0  14  121.18    5.24
   8   0  14  117.20    5.55
   8   0 -14  126.88    4.94
   8   0  14  121.17    4.71
   8   0 -15   48.82    2.48
   8   0  15   50.87    2.29
   8   0  16  317.34   11.41
   8   0 -16  321.00   11.66
   8   0  17  256.56    9.35
   8   0  18   60.89    2.74
   8   0  19   23.04    1.45
   8   0  20   26.44    1.60
   8   0  21    9.97    0.86
   8   0  21    9.68    1.00
   8   0  22    4.88    0.69
   8   0  22    3.66    0.78
   8   0  23    1.77    0.67
  -8   0 -23    1.76    0.63
  -8   0 -24   31.72    1.73
   8   0  24   28.39    1.71
  -8   0 -25    9.37    0.98
   8   0  26   20.97    1.37
  -8   0 -26   20.30    1.35
   8   0  27    4.52    0.76
  -8   0 -27    6.09    0.76
   8   0  28    2.71    0.63
   8   0  29   11.38    0.92
   8   0  30   19.58    1.15
   8   0  31   17.96    1.01
   8   0  32    4.96    0.48
   9   0   0    0.70    0.63
   9   0   1    0.23    0.56
   9   0  -1    0.36    0.54
   9   0  -2    0.06    0.52
   9   0   2   -0.18    0.52
   9   0  -3    0.43    0.60
   9   0   3    0.18    0.54
   9   0   4   -0.06    0.52
   9   0  -4    0.25    0.60
   9   0   5    0.19    0.52
   9   0  -5    0.20    0.57
   9   0  -6    0.28    0.61
   9   0   6   -0.06    0.53
   9   0  -7    0.15    0.64
   9   0   7    0.65    0.57
   9   0  -8    0.40    0.74
   9   0   8   -0.34    0.56
   9   0  -9    0.26    0.73
   9   0   9    0.07    0.53
   9   0  10    1.22    0.64
   9   0 -10    0.54    0.75
   9   0  11    0.38    0.60
   9   0 -11    0.39    0.51
   9   0  12   -0.15    0.43
   9   0 -12   -0.04    0.55
   9   0  13    0.22    0.43
   9   0 -13    0.37    0.61
   9   0 -14   -0.17    0.68
   9   0  14    0.36    0.45
   9   0 -15   -0.14    0.70
   9   0  15    0.28    0.50
   9   0  16   -0.07    0.52
   9   0 -16    0.73    0.79
   9   0  17    0.74    0.60
  -9   0 -18    0.19    0.48
   9   0  18    1.02    0.58
   9   0  18    0.11    0.58
  -9   0 -19    1.11    0.53
   9   0  19   -0.23    0.63
   9   0  19    0.03    0.55
   9   0  20    0.08    0.59
   9   0  20    0.06    0.54
  -9   0 -20    0.17    0.51
   9   0  21    0.04    0.60
   9   0  21    0.22    0.55
  -9   0 -21    0.67    0.55
   9   0  22    0.08    0.64
  -9   0 -22    0.21    0.52
   9   0  22    0.41    0.54
   9   0  23    0.03    0.50
  -9   0 -23   -0.11    0.54
   9   0  23    0.04    0.62
  -9   0 -24    0.04    0.54
   9   0  24    0.16    0.61
   9   0  25    0.26    0.59
   9   0  26   -0.07    0.56
   9   0  27   -0.69    0.56
   9   0  28   -0.21    0.52
   9   0  29   -0.18    0.45
   9   0  30    0.49    0.39
   9   0  31    0.45    0.32
  10   0   0  236.99    9.27
  10   0   1  153.27    6.55
  10   0  -1  166.58    6.69
  10   0   2   52.55    2.88
  10   0  -2   54.07    2.95
  10   0   3  303.35   11.51
  10   0  -3  303.94   11.58
  10   0  -4  695.27   24.69
  10   0   4  685.90   24.57
  10   0   5  183.80    7.59
  10   0  -5  192.82    7.78
  10   0   6   17.24    1.55
  10   0  -6   20.66    1.76
  10   0   7    4.56    0.89
  10   0  -7    3.72    0.94
  10   0  -8    8.57    1.30
  10   0   8   10.20    1.20
  10   0   8    9.95    0.76
  10   0  -8    9.83    0.85
  10   0  -9    9.15    1.35
  10   0   9    9.34    0.80
  10   0  10   31.77    1.65
  10   0 -10   31.97    1.74
  10   0  10   33.41    1.57
  10   0 -11  137.58    5.24
  10   0  11  131.98    4.96
  10   0  11  127.93    5.08
  10   0 -12   43.55    2.23
  10   0  12   43.17    1.95
  10   0  12   41.12    2.05
  10   0  13   74.62    3.27
  10   0 -13   82.34    3.51
  10   0  13   76.97    3.14
  10   0  14   40.39    1.84
  10   0  14   35.94    1.94
  10   0 -14   37.31    2.14
  10   0  15  795.64   26.88
  10   0 -15  784.44   27.32
  10   0  15  761.93   27.06
  10   0 -16 1473.38   50.71
  10   0  16 1476.55   50.23
  10   0  16 1474.99   50.43
  10   0  17 1271.99   43.29
  10   0  17 1264.82   43.52
  10   0  18  331.33   11.95
  10   0  19  105.35    4.15
  10   0  19  105.62    4.34
  10   0  20   26.55    1.49
  10   0  20   27.02    1.63
  10   0  21   36.92    1.83
  10   0  21   37.56    2.00
  10   0  22   24.86    1.57
  10   0  22   26.37    1.46
  10   0  23   12.61    1.07
  10   0  23   11.20    0.94
  10   0  24    5.94    0.72
  10   0  24    6.08    0.84
  10   0  25   32.29    1.74
  10   0  26   21.69    1.32
  10   0  27   -0.06    0.51
  10   0  28    2.63    0.53
  10   0  29    1.22    0.43
  10   0  30    8.60    0.62
  11   0   0    0.08    0.55
  11   0   0    0.11    0.38
  11   0  -1   -0.03    0.38
  11   0   1    0.30    0.60
  11   0   1   -0.03    0.39
  11   0  -1    0.46    0.62
  11   0  -2   -0.08    0.59
  11   0   2   -0.15    0.57
  11   0  -2    0.15    0.42
  11   0   2    0.28    0.39
  11   0   3    0.15    0.51
  11   0   3   -0.02    0.42
  11   0  -3    0.21    0.42
  11   0   3    0.11    0.41
  11   0  -3    0.08    0.63
  11   0  -4    0.49    0.63
  11   0  -4    0.03    0.42
  11   0   4    0.45    0.60
  11   0   4    0.12    0.43
  11   0   4    0.07    0.41
  11   0   5   -0.12    0.44
  11   0   5   -0.08    0.59
  11   0  -5    0.09    0.46
  11   0  -5    0.17    0.61
  11   0   5    0.06    0.43
  11   0   6   -0.02    0.44
  11   0   6    0.18    0.43
  11   0  -6    0.36    0.69
  11   0  -6    0.16    0.47
  11   0  -7    0.48    0.51
  11   0   7   -0.09    0.44
  11   0   7    0.13    0.47
  11   0  -7    0.48    0.82
  11   0   8    0.36    0.46
  11   0  -8   -0.07    0.49
  11   0  -8    0.90    0.80
  11   0   8    0.06    0.46
  11   0  -9    0.52    0.75
  11   0  -9    0.04    0.56
  11   0   9    0.21    0.55
  11   0   9    0.07    0.50
  11   0  10    0.28    0.50
  11   0 -10   -0.20    0.60
  11   0  11    0.42    0.54
  11   0  11    0.21    0.53
  11   0 -11    0.17    0.66
  11   0  12   -0.33    0.60
  11   0  12    0.37    0.54
  11   0 -12    0.09    0.66
  11   0 -13   -0.14    0.78
  11   0  13    0.43    0.60
  11   0  13   -0.11    0.63
  11   0 -14   -0.85    0.80
  11   0  14    0.41    0.63
  11   0  14   -0.19    0.65
  11   0 -15    0.47    0.90
  11   0  15    0.54    0.64
  11   0  15   -0.20    0.67
  11   0  16    0.43    0.67
  11   0 -16   -0.05    0.82
  11   0  16    0.44    0.64
  11   0  17    0.40    0.69
  11   0  17    0.71    0.67
  11   0  18    0.08    0.62
  11   0  18    0.09    0.64
  11   0  19    0.24    0.64
  11   0  19    0.04    0.60
  11   0  20   -0.03    0.63
  11   0  20   -0.28    0.64
  11   0  21   -0.12    0.60
  11   0  21   -0.06    0.62
  11   0  22    0.23    0.61
  11   0  22    0.04    0.59
  11   0  23    0.49    0.55
  11   0  23    0.04    0.58
  11   0  24    0.33    0.53
  11   0  24    0.21    0.55
  11   0  25   -0.45    0.51
  11   0  25   -0.35    0.55
  11   0  26    0.26    0.48
  11   0  27   -0.15    0.41
  11   0  28    0.02    0.40
  11   0  29    0.14    0.30
  12   0   0   21.99    1.82
  12   0   0   17.91    1.22
  12   0   1   30.75    1.55
  12   0   1   30.59    2.21
  12   0  -1   29.53    1.62
  12   0  -1   31.97    2.27
  12   0  -1   31.15    1.58
  12   0   1   30.31    1.62
  12   0  -2    8.24    0.78
  12   0   2    8.57    0.78
  12   0  -2    8.18    1.18
  12   0   2    6.95    0.77
  12   0  -2    8.84    0.85
  12   0   3    1.70    0.56
  12   0  -3    2.58    0.60
  12   0   3    1.99    0.56
  12   0  -3    1.41    0.77
  12   0   4   23.70    1.39
  12   0  -4   24.54    1.46
  12   0   4   23.29    1.33
  12   0  -4   24.14    2.04
  12   0   5   11.08    0.90
  12   0   5   12.48    0.99
  12   0  -5   13.44    1.53
  12   0  -5   10.99    0.99
  12   0   6   28.87    1.53
  12   0   6   27.40    1.55
  12   0  -6   29.12    1.67
  12   0  -6   27.64    2.31
  12   0  -7   84.86    4.57
  12   0   7   83.90    3.52
  12   0  -7   85.21    3.61
  12   0   7   83.79    3.42
  12   0   8   51.19    2.32
  12   0  -8   51.85    3.36
  12   0   8   50.59    2.41
  12   0  -8   52.59    2.50
  12   0   9   56.68    2.50
  12   0  -9   57.50    2.69
  12   0   9   54.04    2.57
  12   0 -10  212.96    8.05
  12   0  10  213.07    7.92
  12   0 -11  131.82    5.24
  12   0  11  123.40    5.01
  12   0  12    2.70    0.77
  12   0  12    2.57    0.75
  12   0 -12    3.19    0.94
  12   0 -13  113.44    4.75
  12   0  13  109.40    4.38
  12   0  13  111.71    4.54
  12   0  14   21.20    1.46
  12   0  14   21.32    1.39
  12   0 -14   23.89    1.72
  12   0 -15   24.02    1.80
  12   0  15   26.09    1.61
  12   0  15   26.78    1.54
  12   0  16   62.75    2.87
  12   0 -16   59.77    3.09
  12   0  16   62.01    2.76
  12   0  17    9.19    1.00
  12   0  17    8.59    0.97
  12   0  18  174.09    6.48
  12   0  18  171.21    6.60
  12   0  19  295.14   10.50
  12   0  19  289.54   10.63
  12   0  20  149.76    5.64
  12   0  20  147.77    5.76
  12   0  21   92.65    3.78
  12   0  21   88.27    3.63
  12   0  22   78.62    3.19
  12   0  22   75.64    3.29
  12   0 -22   79.14    3.26
  12   0  23    6.66    0.80
  12   0  23    6.73    0.76
  12   0 -23    6.96    0.73
  12   0  24   48.50    2.17
  12   0  24   45.33    2.03
  12   0  25   18.83    1.15
  12   0  26    1.73    0.48
  12   0  27   33.33    1.52
  12   0  28   47.94    1.93
  13   0   0    0.51    0.53
  13   0   0    0.39    0.57
  13   0  -1    0.29    0.54
  13   0   1    0.25    0.50
  13   0  -1    0.70    0.53
  13   0  -2   -0.29    0.57
  13   0  -2    0.66    0.53
  13   0   2    0.28    0.51
  13   0  -3   -0.44    0.56
  13   0   3   -0.27    0.58
  13   0   3   -0.04    0.55
  13   0   4    0.06    0.61
  13   0  -4   -0.30    0.75
  13   0   4    0.68    0.54
  13   0  -4    0.23    0.60
  13   0  -5   -0.32    0.77
  13   0  -5    0.54    0.59
  13   0   5    0.29    0.51
  13   0   5    0.25    0.60
  13   0   6    0.60    0.62
  13   0   6    0.11    0.54
  13   0  -6    0.47    0.63
  13   0  -6    0.22    0.80
  13   0   7    0.19    0.56
  13   0   7   -0.55    0.64
  13   0  -7   -0.53    0.68
  13   0  -7   -0.90    0.85
  13   0  -8   -0.47    0.91
  13   0   8    0.30    0.56
  13   0   8    0.23    0.68
  13   0  -8   -0.04    0.66
  13   0   9    0.04    0.59
  13   0  -9    0.18    0.71
  13   0   9   -0.23    0.69
  13   0 -10    0.14    0.71
  13   0  10   -0.04    0.60
  13   0  10    0.10    0.70
  13   0 -11   -0.29    0.79
  13   0  11   -0.60    0.69
  13   0  12    0.16    0.63
  13   0 -12   -0.55    0.79
  13   0  13   -0.65    0.72
  13   0  13   -0.29    0.66
  13   0 -13    0.36    0.85
  13   0  14    0.17    0.74
  13   0  14   -0.29    0.63
  13   0 -14   -0.21    0.91
  13   0  15    0.17    0.74
  13   0  15   -0.20    0.65
  13   0 -15   -0.16    0.91
  13   0  16   -0.03    0.73
  13   0  16   -0.52    0.67
  13   0  17   -0.20    0.59
  13   0  17   -0.17    0.71
  13   0  18    0.19    0.58
  13   0  18   -0.62    0.73
  13   0  19   -0.31    0.70
  13   0  19    0.48    0.61
  13   0  20   -0.07    0.58
  13   0  20   -0.45    0.62
  13   0  21    0.34    0.59
  13   0  21    0.10    0.56
  13   0 -22    0.09    0.49
  13   0  22    0.34    0.51
  13   0  22    0.08    0.56
  13   0 -23   -0.03    0.44
  13   0  23    0.23    0.49
  13   0  24    0.61    0.44
  13   0  25    0.15    0.38
  13   0  25    0.56    0.40
  13   0  26    0.24    0.32
  14   0   0    5.20    0.83
  14   0   0    6.31    0.81
  14   0  -1    3.36    0.71
  14   0   1    3.24    0.75
  14   0  -1    2.22    0.71
  14   0   1    3.77    0.72
  14   0   2    4.94    0.80
  14   0  -2    3.76    0.77
  14   0   2    4.33    0.73
  14   0   3   44.35    2.24
  14   0  -3   43.02    2.22
  14   0   4  119.80    4.73
  14   0  -4  113.05    4.72
  14   0  -5   61.25    2.84
  14   0   5   56.26    2.63
  14   0   5   58.08    2.73
  14   0  -6  123.15    4.89
  14   0   6  115.01    4.68
  14   0   6  120.71    4.80
  14   0   7  273.53   10.10
  14   0  -7  273.93   10.26
  14   0   7  291.94   10.23
  14   0  -8  432.59   14.51
  14   0   8  406.11   14.38
  14   0   9  380.20   13.81
  14   0   9  395.05   13.92
  14   0  -9  395.06   14.04
  14   0 -10  261.02    9.66
  14   0  10  255.24    9.50
  14   0  10  258.61    9.42
  14   0 -11  158.57    6.21
  14   0  11  154.92    6.05
  14   0  11  154.00    5.95
  14   0  12   28.52    1.71
  14   0 -12   26.71    1.86
  14   0  13    4.95    0.81
  14   0 -13    4.71    1.01
  14   0  14   12.69    1.11
  14   0 -14   11.62    1.33
  14   0  14   11.34    1.13
  14   0  15   17.65    1.35
  14   0  15   18.50    1.33
  14   0 -15   18.24    1.55
  14   0  16   17.52    1.35
  14   0  16   19.11    1.33
  14   0  17   82.41    3.44
  14   0  17   81.23    3.47
  14   0  18   10.15    0.97
  14   0  18   11.70    1.03
  14   0  19    1.73    0.60
  14   0  19    1.85    0.69
  14   0  20   68.61    2.91
  14   0  20   70.08    2.94
  14   0  21   32.11    1.69
  14   0 -21   37.93    1.79
  14   0  22    1.60    0.49
  14   0 -22    1.32    0.49
  14   0 -23   25.37    1.29
  14   0  23   23.22    1.27
  14   0  23   27.64    1.33
  14   0  24   32.60    1.45
  14   0  24   29.83    1.42
  14   0  25   20.79    1.01
  15   0   0   -0.24    0.68
  15   0   0    0.07    0.59
  15   0   1   -0.20    0.65
  15   0  -1    0.29    0.59
  15   0  -1    0.24    0.64
  15   0   1    0.37    0.59
  15   0  -2   -0.53    0.70
  15   0   2   -0.48    0.58
  15   0   2   -0.40    0.68
  15   0  -3    0.37    0.67
  15   0   3   -0.77    0.69
  15   0   3   -0.07    0.59
  15   0   4    0.75    0.63
  15   0  -4    0.30    0.69
  15   0   4    0.16    0.70
  15   0  -5    0.04    0.73
  15   0   5    0.04    0.64
  15   0   5    0.68    0.66
  15   0  -6    0.04    0.73
  15   0   6    0.12    0.70
  15   0   7    0.40    0.67
  15   0  -7    0.09    0.77
  15   0  -8    0.59    0.83
  15   0   8    0.40    0.65
  15   0  -9   -0.14    0.78
  15   0   9    0.64    0.67
  15   0 -10    0.43    0.80
  15   0  10   -0.68    0.68
  15   0  10   -0.35    0.76
  15   0 -11   -0.29    0.82
  15   0  11   -0.35    0.66
  15   0  11   -0.60    0.80
  15   0 -12   -0.78    0.84
  15   0  12   -0.53    0.86
  15   0  12    0.27    0.63
  15   0  13   -0.34    0.65
  15   0 -13   -0.59    0.87
  15   0 -14    0.10    0.77
  15   0  14   -0.63    0.64
  15   0  15   -0.13    0.78
  15   0  15   -0.28    0.60
  15   0  16    0.07    0.54
  15   0  17    0.03    0.54
  15   0  18   -0.06    0.52
  15   0  19   -0.08    0.46
  15   0 -20    0.03    0.51
  15   0  20    0.05    0.43
  15   0  20    0.40    0.54
  15   0  21   -0.20    0.40
  15   0 -21    0.26    0.45
  15   0  21    0.48    0.46
  15   0  22    0.02    0.36
  15   0 -22   -0.20    0.40
  15   0  22    0.02    0.41
  15   0 -23    0.34    0.34
  15   0  23   -0.07    0.35
  16   0   0   20.31    1.33
  16   0   0   18.83    1.40
  16   0  -1   10.27    1.11
  16   0   1   11.49    1.06
  16   0  -2   20.12    1.43
  16   0   2   19.42    1.32
  16   0   2   17.41    1.35
  16   0   3   17.58    1.32
  16   0  -3   15.18    1.31
  16   0   3   16.61    1.22
  16   0   4  120.21    4.92
  16   0  -4  133.72    5.12
  16   0   4  122.32    4.99
  16   0   5  153.54    5.96
  16   0   5  152.85    5.90
  16   0  -5  151.70    5.98
  16   0   6  683.29   23.93
  16   0   6  703.39   23.90
  16   0  -6  672.28   23.98
  16   0  -7  111.07    4.79
  16   0   7  116.53    4.73
  16   0   7  123.96    4.74
  16   0   8   43.85    2.18
  16   0  -8   37.20    2.22
  16   0   8   43.28    2.17
  16   0   9   92.44    3.89
  16   0  -9   90.11    4.01
  16   0   9   96.16    3.91
  16   0 -10   59.51    2.98
  16   0  10   64.09    2.86
  16   0  10   63.76    2.85
  16   0  11   17.65    1.26
  16   0  11   17.85    1.31
  16   0 -11   18.37    1.48
  16   0 -12   15.95    1.39
  16   0  12   17.84    1.30
  16   0  12   18.46    1.27
  16   0  13    2.25    0.75
  16   0 -13    1.43    0.79
  16   0  13    2.53    0.64
  16   0  14    4.27    0.70
  16   0  15   14.87    1.07
  16   0  16   35.26    1.77
  16   0  16   31.03    1.64
  16   0  17    4.90    0.75
  16   0  17    5.29    0.66
  16   0  18   16.41    1.03
  16   0 -18   18.89    1.17
  16   0  18   18.12    1.15
  16   0  19    5.59    0.61
  16   0 -19    6.69    0.73
  16   0 -20   10.82    0.82
  16   0  20    9.28    0.69
  16   0  20   11.61    0.82
  16   0  21    7.47    0.64
  16   0 -21    7.45    0.65
  16   0  22    0.85    0.36
  17   0   0    0.20    0.64
  17   0   1    0.16    0.63
  17   0   1    0.31    0.59
  17   0  -1   -0.12    0.63
  17   0  -2   -0.16    0.66
  17   0   2   -0.31    0.61
  17   0   2    0.03    0.60
  17   0   3    0.42    0.64
  17   0   3    0.21    0.62
  17   0  -3    0.88    0.71
  17   0  -4    1.05    0.70
  17   0   4   -0.04    0.61
  17   0   4    0.19    0.63
  17   0   5   -0.32    0.62
  17   0   5   -0.07    0.61
  17   0  -5    0.69    0.71
  17   0   6    0.14    0.62
  17   0   6   -0.11    0.58
  17   0  -6    0.45    0.70
  17   0  -7    0.50    0.73
  17   0   7    0.24    0.63
  17   0   7    0.04    0.60
  17   0  -8    0.08    0.69
  17   0   8    0.62    0.67
  17   0   8    0.39    0.60
  17   0  -9   -0.46    0.74
  17   0   9    0.52    0.57
  17   0   9   -0.31    0.64
  17   0  10   -0.23    0.58
  17   0 -10   -0.04    0.72
  17   0  10    0.03    0.63
  17   0  11   -0.70    0.60
  17   0  11    0.03    0.61
  17   0 -11    0.12    0.73
  17   0  12    0.12    0.51
  17   0  12    0.45    0.60
  17   0 -12    0.91    0.74
  17   0  13    0.25    0.58
  17   0  13    0.40    0.49
  17   0  14    0.18    0.55
  17   0  14   -0.03    0.44
  17   0  15   -0.17    0.41
  17   0 -16    0.30    0.51
  17   0  16    0.18    0.40
  17   0 -17    0.86    0.51
  17   0  17    0.49    0.51
  17   0  17    0.26    0.34
  17   0  18    0.31    0.45
  17   0 -18    0.37    0.43
  17   0 -19    0.27    0.39
  17   0  19    0.22    0.41
  17   0 -20    0.09    0.34
  17   0  20   -0.22    0.35
  18   0   0  241.63    8.85
  18   0   1   67.20    3.02
  18   0  -1   72.13    3.08
  18   0   2   14.39    1.12
  18   0   2   13.56    1.03
  18   0  -2   12.62    1.12
  18   0   3    5.48    0.81
  18   0   3    6.35    0.79
  18   0  -3    6.25    0.90
  18   0   4   12.55    1.05
  18   0   4   14.79    1.06
  18   0  -4   11.80    1.10
  18   0   5    9.15    0.87
  18   0  -5    9.69    0.99
  18   0   5    8.33    0.89
  18   0   6   11.35    0.99
  18   0   6   13.87    1.03
  18   0  -6   13.83    1.14
  18   0   7    9.69    0.90
  18   0   7    9.97    0.92
  18   0  -7   11.19    1.07
  18   0   8   27.78    1.51
  18   0  -8   24.79    1.60
  18   0  -9   40.09    2.14
  18   0   9   42.28    2.00
  18   0   9   46.30    2.07
  18   0  10    9.55    0.80
  18   0  10    9.18    0.87
  18   0 -10    8.02    0.93
  18   0 -11   -0.03    0.60
  18   0  11    0.53    0.54
  18   0  11    1.27    0.49
  18   0  12   11.68    0.91
  18   0  12    9.34    0.78
  18   0  13    3.57    0.63
  18   0  13    1.99    0.47
  18   0  14   16.66    1.06
  18   0 -14   17.98    1.08
  18   0  15    6.41    0.68
  18   0 -17    9.58    0.68
  19   0   0   -0.30    0.51
  19   0  -1    0.03    0.55
  19   0   1    0.99    0.55
  19   0  -2   -0.06    0.54
  19   0   2    0.31    0.50
  19   0   3    0.03    0.48
  19   0  -3    0.58    0.56
  19   0   4    0.27    0.50
  19   0  -4    0.09    0.54
  19   0   4   -0.22    0.45
  19   0   5    0.12    0.47
  19   0   5    0.29    0.47
  19   0  -5    0.12    0.54
  19   0   6   -0.05    0.42
  19   0  -6    0.09    0.54
  19   0   6   -0.20    0.48
  19   0   7   -0.32    0.47
  19   0  -7    0.30    0.55
  19   0   7    0.21    0.44
  19   0  -8    0.25    0.43
  19   0   8    0.11    0.39
  19   0   8    0.36    0.46
  19   0  -8   -0.20    0.54
  19   0  -9    0.18    0.41
  19   0   9    0.30    0.48
  19   0   9    0.33    0.39
  19   0 -10    0.46    0.42
  19   0  10   -0.02    0.45
  19   0 -11   -0.13    0.40
  19   0  11   -0.13    0.43
  19   0  12    0.02    0.42
  19   0 -12    0.12    0.35
  19   0 -13   -0.04    0.33
  19   0  13    0.27    0.38
  19   0 -14    0.31    0.33
  19   0  14    0.09    0.36
  20   0   0    0.35    0.44
  20   0   1   27.48    1.37
  20   0  -1   28.11    1.40
  20   0   2    1.55    0.45
  20   0  -2    0.56    0.44
  20   0   3   18.82    1.05
  20   0  -3   20.36    1.13
  20   0  -4    1.13    0.48
  20   0  -5    0.61    0.43
   0  -1   0    1.31    0.22
   0  -1   0    1.96    0.19
   0  -1  -1    0.23    0.13
   0  -1   1   -0.09    0.16
   0  -1   1    0.42    0.22
   0  -1  -1    0.08    0.11
   0  -1  -2 6620.10  222.10
   0  -1   2 6620.19  222.28
   0  -1  -2 6555.22  222.13
   0  -1   3    0.20    0.29
   0  -1  -3    0.39    0.18
   0  -1  -4   11.93    0.66
   0  -1   4    9.99    0.84
   0  -1   4   11.57    0.84
   0  -1   5    0.18    0.55
   0  -1   5    0.70    0.55
   0  -1   6 1119.94   38.42
   0  -1   6 1120.47   38.39
   0  -1   7    0.87    0.56
   0  -1   8    7.86    0.83
   0  -1   9    0.23    0.43
   0  -1  10 1887.35   64.51
   0  -1  11   -0.05    0.52
   0  -1  12  275.93   10.16
   0  -1  12  260.67   10.40
   0  -1  13    0.55    0.86
   0  -1  13    0.12    0.59
   0  -1  14  578.76   20.87
   0  -1  14  563.59   20.40
   0  -1  15    0.37    0.87
   0  -1  15    0.46    0.61
   0  -1  16   88.19    4.23
   0   1  16   91.42    4.63
   0  -1  16   95.72    4.82
   0  -1  17    0.35    0.56
   0   1  17    0.70    0.74
   0  -1  17    0.65    0.88
   0   1  18  459.78   17.10
   0  -1  18  435.03   16.40
   0  -1  18  447.18   17.18
   0  -1  19    0.37    0.86
   0   1  19    0.23    0.72
   0  -1  19    0.29    0.36
   0   1  19    0.17    0.35
   0   1  20  201.80    7.45
   0   1  20  216.22    9.18
   0  -1  20  207.01    7.51
   0  -1  20  213.90    9.31
   0   1  21   -0.51    0.84
   0  -1  21    0.20    0.41
   0   1  21    0.19    0.37
   0  -1  21   -0.14    0.85
   0  -1  22    4.48    0.63
   0   1  22    4.14    0.61
   0   1  22    5.04    1.23
   0  -1  22    4.17    1.26
   0   1  23    0.06    0.44
   0  -1  23   -0.09    0.44
   0   1  23   -0.14    0.85
   0  -1  23    0.30    0.97
   0   1  24    7.19    0.79
   0  -1  24    6.11    0.75
   0   1  24    6.86    1.44
   0  -1  24    6.87    1.55
   0  -1  25    0.27    0.51
   0  -1  25   -0.16    1.01
   0   1  25   -0.23    0.52
   0   1  26   15.65    1.15
   0   1 -27    0.69    0.62
   0  -1  27   -0.07    0.52
   0   1  27    0.07    0.55
   0   1 -28  169.88    6.49
   0  -1  28  163.07    6.41
   0   1  28  181.18    6.50
   0   1  29    0.37    0.56
   0   1 -29    0.53    0.57
   0   1 -30    2.39    0.67
   0   1  30    2.98    0.63
   0   1  31    0.57    0.51
   0   1  32   28.83    1.49
   0   1  33    0.38    0.49
   0  -1 -33   -0.05    0.44
   0  -1  33    0.07    0.41
   0  -1 -34   29.23    1.33
   0   1  34   30.36    1.40
   0   1  35    0.02    0.33
   1  -1   0  472.66   15.61
   1  -1   0  456.94   15.59
  -1  -1   0  449.05   15.43
   1  -1   1  878.20   29.84
   1  -1  -1  852.97   29.78
   1  -1   1  878.80   29.86
  -1  -1   1  899.97   29.76
   1  -1   2  752.97   25.78
   1  -1  -2  757.26   25.68
   1  -1   3   83.38    3.35
   1  -1  -3   87.07    3.23
   1  -1  -3   89.09    3.06
   1  -1  -4  189.44    6.62
   1  -1   4  182.97    6.80
   1  -1  -5  580.47   19.67
   1  -1   5  561.35   19.85
   1  -1  -6  777.88   24.36
   1  -1   6  719.41   24.51
   1   1   6  692.51   23.95
   1  -1   7  493.35   17.01
   1   1   7  481.69   16.41
   1  -1   8   23.80    1.43
  -1   1   8   22.40    1.02
   1  -1   9  279.73   10.23
   1  -1   9  276.95   10.40
  -1   1   9  276.35    9.71
  -1  -1   9  292.12   10.40
   1  -1  10  248.95    9.17
  -1   1  10  239.89    8.58
   1  -1  10  252.71    9.38
  -1  -1  10  251.68    9.30
  -1  -1  11   48.45    2.62
   1   1  11   53.49    2.67
   1  -1  11   48.68    2.54
   1  -1  11   53.25    2.80
   1   1  12  123.01    5.23
   1  -1  12  119.75    5.10
   1  -1  12  124.12    5.43
  -1  -1  12  124.71    5.24
   1  -1  13   70.57    3.33
  -1  -1  13   69.12    3.44
   1   1  13   65.10    3.40
   1  -1  13   69.14    3.63
   1  -1  14   61.61    3.43
  -1  -1  14   62.72    3.24
   1   1  14   63.83    3.33
   1  -1  14   60.00    3.09
   1   1  15  579.82   20.60
   1  -1  15  554.49   20.23
  -1  -1  15  524.88   20.77
   1  -1  15  599.95   20.86
  -1  -1  15  567.91   20.40
   1   1  16  110.25    5.24
   1  -1  16  112.93    5.43
  -1  -1  16  114.32    5.57
   1  -1  16  110.82    4.92
  -1  -1  16  108.73    5.02
   1   1  17   37.64    2.57
  -1  -1  17   32.87    2.25
  -1  -1  17   38.91    2.87
   1  -1  17   37.91    2.73
   1  -1  17   34.73    2.24
  -1  -1  18   47.38    2.85
   1   1  18   51.21    3.19
   1  -1  18   52.70    3.40
  -1   1  18   48.12    3.29
  -1  -1  18   52.60    3.49
   1  -1  19   13.88    0.94
  -1  -1  19   13.11    1.76
  -1   1  19   13.23    0.86
  -1   1  19   12.63    1.70
   1  -1  19   11.89    1.62
   1   1  19   14.40    1.65
   1   1  20   31.64    2.57
  -1   1  20   29.89    2.63
  -1  -1  20   32.59    2.77
   1  -1  20   32.16    2.73
   1   1  20   31.31    1.55
  -1   1  20   29.94    1.51
   1  -1  20   30.62    1.60
  -1  -1  20   31.20    1.53
   1  -1  21   15.71    1.96
  -1   1  21   14.95    0.97
   1  -1  21   14.12    1.02
  -1  -1  21   16.21    2.01
  -1   1  21   14.98    1.88
   1   1  21   14.59    1.75
  -1  -1  21   13.64    0.94
   1   1  21   13.93    0.96
  -1   1  22   68.88    2.84
   1   1  22   67.27    2.85
  -1   1  22   71.01    4.39
  -1  -1  22   63.55    2.81
  -1  -1  22   68.17    4.42
   1  -1  22   71.26    4.44
   1   1  22   70.58    4.19
   1  -1  22   67.47    2.91
   1  -1  23   23.80    2.51
   1  -1  23   21.22    1.32
  -1  -1  23   20.86    1.25
  -1   1  23   21.40    2.35
   1   1  23   22.46    1.32
  -1   1  23   19.76    1.25
  -1  -1  23   22.71    2.44
   1   1  24    3.85    0.67
  -1  -1  24    3.23    0.60
  -1   1  24    3.70    1.18
  -1  -1  24    2.34    1.16
  -1   1  24    3.67    0.61
   1  -1  24    3.35    0.63
   1  -1  24    3.89    1.31
   1   1  25   22.60    1.39
   1  -1  25   22.95    1.40
  -1   1  25   24.49    2.48
  -1   1  25   25.12    1.40
  -1  -1  25   22.08    1.34
   1  -1  25   22.88    2.48
  -1  -1  25   19.71    2.37
   1   1  26   44.83    2.14
   1  -1  26   39.53    2.07
  -1  -1  26   41.32    2.04
  -1   1  26   43.42    2.07
  -1   1  27    2.56    0.61
  -1  -1  27    2.96    0.58
   1  -1  27    1.82    0.62
   1   1  27    1.92    0.60
   1   1 -27    3.07    0.64
  -1   1 -27    2.31    0.70
   1   1  28   13.76    1.12
  -1   1  28   13.67    1.07
  -1   1 -28   14.91    1.16
  -1  -1  28   12.45    1.02
   1   1 -28   14.06    1.10
   1   1  29   11.28    1.02
  -1   1  29   12.74    1.03
   1   1 -29   12.35    1.01
  -1   1 -29   12.86    1.09
  -1   1  30   43.10    2.05
   1   1  30   43.15    2.05
  -1   1 -30   41.01    2.10
  -1   1  31   69.61    2.87
   1   1  31   67.69    2.88
   1  -1  31   64.71    2.88
   1   1  31   69.79    2.96
   1   1  32   14.41    0.99
  -1   1  32   14.89    0.99
   1   1  32   15.01    1.06
   1  -1  32   14.19    0.98
   1   1  33   36.02    1.73
  -1   1  33   34.93    1.64
  -1  -1 -33   37.19    1.70
   1  -1  33   33.89    1.65
   1  -1 -33   35.86    1.64
   1  -1  34   13.51    0.83
  -1  -1 -34   15.07    0.91
   1   1  34   15.10    0.92
  -1  -1  34   14.03    0.85
   1   1  35    8.01    0.60
  -1   1  35    8.04    0.62
   2   1   0  571.71   19.67
   2  -1   0  607.65   19.93
   2  -1  -1  231.34    7.83
   2   1   1  219.66    7.53
   2   1   2  846.34   29.40
   2  -1  -2  896.46   29.70
   2  -1  -2  929.13   29.55
   2  -1  -3   62.59    2.30
   2   1   3   61.66    2.24
   2  -1  -3   61.77    2.47
   2  -1  -4   81.77    3.08
   2   1   4   78.91    2.89
   2  -1   4   75.31    3.16
   2   1   5  427.99   15.01
   2  -1  -5  449.63   15.15
   2  -1   5  434.55   15.27
   2  -1   6  233.34    8.61
   2  -1  -6  241.77    8.43
   2   1   6  230.33    8.11
   2   1   6  232.52    8.33
   2  -1   6  245.19    8.57
   2   1   7  172.68    6.29
   2  -1   7  175.67    6.46
   2  -1   7  177.46    6.58
   2   1   7  166.42    5.97
   2  -1  -7  171.41    6.35
   2  -1   8   55.78    2.66
   2   1   8   60.19    2.60
   2   1   8   59.02    2.25
   2  -1   8   61.27    2.86
   2  -1  -8   62.25    2.67
   2   1   9   44.40    1.78
   2  -1   9   41.86    2.21
   2   1   9   45.34    2.17
   2  -1   9   48.71    2.44
   2   1  10   40.44    1.69
   2  -1  10   41.09    2.34
   2  -1  10   44.44    2.21
   2   1  10   41.83    2.13
   2   1  11  670.73   23.79
   2   1  11  673.18   23.16
   2  -1  11  707.29   24.12
   2  -1  11  677.57   23.79
   2  -1  12  242.01    9.29
  -2  -1  12  229.60    9.17
   2   1  12  240.52    9.00
   2  -1  12  230.71    8.93
   2   1  13   51.50    2.72
   2  -1  13   49.18    2.64
   2  -1  13   50.13    2.94
  -2  -1  13   51.15    2.88
   2  -1  14   36.57    2.19
  -2  -1  14   39.15    2.42
   2  -1  14   35.44    2.48
   2   1  14   38.54    2.32
  -2  -1  15  320.29   12.43
   2   1  15  323.84   12.37
   2  -1  15  336.07   12.73
   2   1  16   57.33    3.23
  -2  -1  16   61.17    3.30
   2  -1  16   57.48    3.47
  -2  -1  17  425.10   16.12
   2  -1  17  443.01   16.61
   2   1  17  432.41   16.22
  -2  -1  18    1.68    0.71
  -2  -1  18    2.72    1.16
   2  -1  18    1.35    0.89
   2   1  18    2.24    0.82
   2   1  18    2.37    0.43
  -2   1  19   11.22    0.82
   2  -1  19   13.86    1.74
   2   1  19   14.24    1.58
  -2  -1  19   10.34    1.65
   2   1  19   13.38    0.90
   2  -1  19   13.59    0.95
  -2  -1  20    4.98    1.35
   2  -1  20    2.83    1.08
   2   1  20    3.96    0.99
  -2   1  20    4.44    0.55
  -2  -1  20    4.31    0.51
  -2   1  20    4.32    1.23
   2  -1  20    5.24    0.65
  -2   1  21   12.85    0.88
  -2  -1  21   11.19    1.74
   2  -1  21   10.77    1.70
   2   1  21   10.13    1.48
  -2   1  21   11.78    1.76
  -2  -1  21   10.11    0.79
   2  -1  21   10.34    0.92
  -2  -1  22   27.18    1.48
   2  -1  22   30.19    1.67
  -2  -1  22   33.96    2.96
  -2   1  22   32.32    1.58
   2  -1  22   33.58    2.90
  -2   1  22   34.20    2.93
  -2   1  23    1.59    0.51
  -2   1  23    2.59    1.22
   2  -1  23    1.49    1.07
  -2  -1  23    0.69    0.42
  -2  -1  23    1.56    1.08
   2  -1  23    1.28    0.56
  -2  -1  24   51.58    2.39
  -2  -1  24   57.22    4.09
  -2   1  24   51.76    3.89
  -2   1  24   56.27    2.48
   2  -1  24   59.18    2.61
   2  -1  24   56.68    3.99
  -2   1  25   34.37    3.02
   2  -1  25   34.97    3.09
  -2   1  25   34.76    1.77
   2  -1  25   37.26    1.88
  -2  -1  25   31.76    1.69
  -2  -1  26   14.40    1.07
   2  -1  26   16.55    1.24
  -2   1  27  110.42    4.17
  -2   1 -27  108.23    4.29
   2   1 -27  101.15    4.11
   2   1  27  103.50    4.19
  -2  -1  27   95.02    4.04
   2   1  28    5.67    0.82
  -2  -1  28    4.96    0.68
  -2   1  28    6.83    0.79
  -2   1 -28    7.18    0.90
   2   1 -28    6.65    0.76
   2   1  29    0.62    0.59
  -2   1  29    0.35    0.53
  -2   1 -29    0.64    0.67
   2   1 -29   -0.03    0.47
   2   1  30   19.28    1.31
  -2   1  30   21.23    1.26
   2   1  30   22.82    1.40
   2  -1  30   19.79    1.30
  -2   1  31    2.75    0.57
   2  -1  31    3.47    0.62
   2   1  31    3.87    0.66
   2   1  31    3.50    0.68
  -2  -1 -32   12.15    0.95
   2  -1 -32   11.73    0.84
  -2   1  32   10.72    0.83
   2  -1  32   10.65    0.84
   2   1  32   11.32    0.92
   2  -1  33    4.08    0.55
   2  -1 -33    4.38    0.51
  -2  -1 -33    4.16    0.61
  -2   1  33    4.34    0.53
   2   1  33    4.89    0.63
  -2  -1 -34   38.56    1.66
  -2  -1  34   34.03    1.59
   2   1  34   41.30    1.68
   2  -1  34   32.72    1.54
   2   1  35   28.76    1.31
   3  -1   0    4.45    0.59
   3   1   0    4.68    0.39
   3   1  -1  210.93    7.37
   3  -1  -1  222.06    7.45
   3   1   1  205.04    7.28
   3  -1  -2  894.68   29.04
   3   1   2  845.45   28.89
   3   1  -2  823.84   29.04
   3  -1   3  685.39   23.06
   3  -1  -3  670.53   22.94
   3   1   3  659.27   22.67
   3   1   4  760.21   26.33
   3  -1   4  773.09   26.69
   3  -1  -4  802.30   26.60
   3  -1  -5 1594.75   53.50
   3   1   5 1550.26   53.29
   3  -1   5 1591.08   53.65
   3   1   6   92.08    3.55
   3  -1   6  100.68    3.93
   3  -1  -6   90.14    3.70
   3   1   7  888.17   30.88
   3  -1   7  939.84   31.28
   3   1   7  887.74   30.69
   3  -1  -7  924.77   31.05
   3   1   8  522.48   18.94
   3  -1   8  559.35   19.35
   3   1   8  544.62   18.71
   3  -1  -8  568.58   19.16
   3  -1  -9   41.20    2.14
   3   1   9   42.21    1.75
   3  -1   9   39.31    2.25
   3   1   9   39.98    1.99
   3   1  10  573.28   20.53
   3   1  10  581.08   20.14
   3  -1  10  624.20   20.98
   3   1  11  164.70    6.60
   3   1  11  171.11    6.19
   3  -1  11  181.89    7.06
   3   1  12   91.43    4.08
   3  -1  12   99.12    4.50
   3  -1  13   33.68    2.29
   3   1  13   30.79    1.95
   3  -1  14  173.01    7.24
   3   1  14  170.61    6.87
  -3  -1  14  162.61    7.13
  -3  -1  15   61.93    3.39
   3   1  15   58.16    3.11
   3  -1  15   57.01    3.38
  -3  -1  16  113.91    5.36
   3   1  16  113.92    5.19
   3  -1  16  116.10    5.55
  -3  -1  17   44.39    2.80
   3  -1  17   44.78    3.03
   3   1  17   42.13    2.69
   3  -1  18   27.47    1.43
   3   1  18   23.72    1.32
   3   1  18   25.03    2.04
  -3  -1  18   24.76    2.04
   3  -1  18   27.97    2.36
   3  -1  19   54.96    2.38
   3   1  19   51.21    3.18
  -3   1  19   49.89    2.22
   3  -1  19   55.81    3.58
   3   1  19   52.16    2.28
  -3   1  20   46.85    2.04
   3  -1  20   43.42    2.14
   3   1  20   45.74    2.08
   3  -1  20   44.22    3.26
  -3   1  21   69.56    4.57
   3  -1  21   71.86    3.13
  -3  -1  21   67.51    4.55
   3   1  21   71.33    3.04
   3  -1  21   77.45    4.57
  -3   1  21   76.08    3.01
  -3  -1  22   47.42    3.75
  -3   1  22   53.56    3.89
  -3   1  22   49.96    2.28
   3  -1  22   52.90    2.46
   3  -1  22   54.93    3.79
   3   1  22   53.17    2.38
  -3   1  23   51.17    3.90
   3  -1  23   53.14    2.52
  -3   1  23   54.63    2.41
   3   1  23   56.82    2.50
  -3  -1  23   53.04    3.95
   3  -1  23   50.11    3.77
  -3   1  24  186.26    6.96
   3   1  24  189.53    7.04
  -3   1  24  189.27    9.04
   3  -1  24  184.66    7.07
   3  -1  24  199.95    9.05
  -3  -1  24  185.99    9.09
  -3   1  25  114.41    4.28
   3   1  25  102.59    4.30
   3  -1  25  105.49    4.38
  -3   1 -26    3.91    0.84
  -3   1  26    3.14    0.65
  -3   1  27  147.94    5.57
  -3   1 -27  143.66    5.71
  -3   1 -28   65.91    2.96
  -3   1  28   62.82    2.77
   3  -1  28   61.49    2.84
   3   1  28   66.16    2.95
  -3   1  29    7.59    0.78
  -3   1 -29    7.81    0.94
   3   1  29    7.42    0.94
   3  -1  29    8.40    0.88
   3   1  30   33.95    1.80
   3  -1  30   31.12    1.71
  -3   1  30   34.78    1.68
  -3   1  31    5.83    0.66
   3   1  31    5.19    0.75
   3  -1  31    7.42    0.75
   3  -1  32    4.06    0.57
  -3   1  32    4.40    0.55
   3   1  32    3.85    0.64
  -3  -1 -32    5.46    0.70
  -3   1  33    6.63    0.57
   3   1  33    6.74    0.68
   3  -1  33    5.92    0.58
  -3  -1 -33    6.83    0.68
   3  -1  34   13.15    0.76
   3   1  34   15.26    0.89
   3   1  35    2.02    0.36
   4   1   0   11.98    0.69
   4  -1   0   10.95    0.81
   4  -1   0   11.89    0.92
   4   1  -1    9.78    0.63
   4  -1   1    9.42    0.82
   4   1   1    9.38    0.59
   4  -1   1    8.69    0.75
   4  -1  -1    9.72    0.74
   4   1   2   73.24    2.79
   4   1  -2   68.19    2.87
   4  -1  -2   77.36    2.92
   4  -1   2   78.84    3.15
   4  -1   3  447.74   15.04
   4   1   3  436.10   14.63
   4   1  -4  739.68   25.60
   4   1   4  730.72   25.38
   4  -1   4  778.95   25.81
   4  -1   5  581.86   19.88
   4   1   5  558.69   19.47
   4  -1  -6  290.35   10.89
   4  -1   6  316.75   11.10
   4   1   6  305.26   10.70
   4   1   7 1172.07   40.30
   4  -1   7 1211.37   40.72
   4  -1  -7 1170.09   40.52
   4   1   8   24.13    1.34
   4  -1   8   25.65    1.66
   4  -1  -8   23.89    1.51
   4   1   8   23.41    1.22
   4   1   9   41.18    1.87
   4  -1  -9   42.03    2.25
   4  -1   9   45.21    2.42
   4   1   9   41.64    2.05
   4  -1 -10  222.28    8.26
   4  -1  10  225.76    8.49
   4   1  10  212.54    8.00
   4   1  10  207.97    7.71
   4   1  11  184.46    6.77
   4   1  11  180.83    7.11
   4  -1  11  196.07    7.60
   4   1  12  174.64    7.12
   4  -1  12  198.99    7.66
   4  -1  13  180.25    7.37
   4   1  13  169.93    6.92
   4  -1  14  208.41    8.30
   4   1  14  190.04    7.78
   4   1  15   34.73    2.23
   4  -1  15   37.74    2.60
   4  -1  16  158.41    6.96
   4   1  16  149.71    6.47
  -4  -1  16  151.21    6.81
   4   1  17   10.47    1.25
   4  -1  17   11.97    1.55
  -4  -1  17   13.44    1.52
   4   1  18    4.66    0.60
  -4   1  18    5.10    0.54
   4  -1  18    5.89    1.20
   4  -1  18    5.57    0.65
   4  -1  19   69.20    2.93
  -4   1  19   66.81    2.77
  -4  -1  19   60.82    4.24
   4   1  19   69.62    2.87
   4  -1  19   71.02    4.18
  -4   1  20    8.99    0.76
   4  -1  20   11.69    1.66
   4   1  20    9.38    0.83
   4  -1  20   10.30    0.90
   4   1  21  115.17    4.40
   4  -1  21  108.59    5.90
  -4   1  21  106.43    4.26
   4  -1  21  113.66    4.47
   4  -1  22  312.76   11.32
  -4   1  22  304.62   11.13
   4  -1  22  324.61   13.23
   4   1  22  323.66   11.28
   4  -1  23  400.31   15.51
   4  -1  23  364.16   13.41
  -4   1  23  378.36   13.27
  -4   1  23  368.11   15.61
   4   1  23  379.99   13.38
  -4   1  24    9.48    1.80
  -4  -1  24    9.34    1.77
   4  -1  24   10.26    1.75
   4   1  24   10.08    0.97
  -4   1  24   12.75    0.95
   4   1  25   31.64    1.84
  -4   1  25   28.82    1.60
   4  -1  25   31.66    1.76
   4   1  25   30.05    1.74
  -4   1  26  291.14   10.22
   4  -1  26  273.93   10.33
   4   1  26  290.07   10.43
   4   1  26  281.54   10.31
   4   1  27  114.44    4.65
   4   1  27  115.39    4.57
  -4   1  27  114.08    4.44
   4  -1  27  109.36    4.54
   4   1  28   27.86    1.64
  -4   1 -28   25.04    1.62
   4   1  28   23.83    1.54
   4  -1  28   24.80    1.52
  -4   1  28   27.71    1.48
   4  -1  29    4.52    0.71
  -4   1  29    4.15    0.61
   4   1  29    4.16    0.77
   4   1  29    4.04    0.74
   4  -1  30    9.20    0.86
   4   1  30    8.40    0.90
  -4   1  30    9.95    0.80
  -4   1  31    3.38    0.51
   4  -1  31    2.90    0.55
   4   1  31    2.84    0.64
   4   1  32   10.60    0.87
  -4   1  32   11.77    0.75
   4  -1  33   10.16    0.71
   4   1  33   11.97    0.83
   4   1  34    4.21    0.51
   5   1   0  291.22   10.74
   5  -1   0  314.33   10.88
   5  -1   0  325.19   11.09
   5   1   1   43.70    1.96
   5  -1   1   48.16    2.14
   5  -1  -1   48.03    2.24
   5  -1   1   48.71    2.28
   5   1  -1   45.49    2.00
   5  -1  -1   49.25    2.11
   5  -1   2   37.80    1.93
   5   1  -2   35.02    1.68
   5   1   2   36.00    1.61
   5  -1  -2   37.39    1.88
   5   1   3  259.91    9.32
   5  -1   3  269.77    9.72
   5  -1  -3  266.82    9.62
   5   1  -4  148.77    5.64
   5  -1   4  160.47    5.90
   5  -1   4  144.39    5.63
   5   1   4  145.71    5.44
   5   1  -5  376.36   14.16
   5   1   5  403.30   13.95
   5  -1   5  424.28   14.41
   5  -1   6  629.53   21.90
   5   1   6  617.06   21.47
   5   1   7  136.44    5.25
   5  -1   7  141.95    5.67
   5   1   8  261.71    9.55
   5  -1   8  266.67    9.98
   5  -1   9   38.94    2.28
   5   1   9   37.74    1.94
   5  -1  -9   37.12    2.18
   5  -1 -10  128.54    5.59
   5   1  10  127.49    5.26
   5   1  10  139.26    5.12
   5  -1  10  136.21    5.72
   5   1  11  726.76   26.23
   5  -1  11  779.36   26.78
   5   1  11  760.99   25.97
   5  -1 -11  747.58   26.56
   5  -1  12   41.64    2.59
   5   1  12   38.81    2.20
   5   1  12   41.33    1.97
   5   1  13  315.65   11.84
   5  -1  13  323.50   12.33
   5  -1  14  101.32    4.93
   5   1  14   99.28    4.50
   5  -1  15   12.82    1.52
   5  -1  16    0.10    0.82
   5  -1  17    0.76    0.72
   5   1  17    0.60    0.37
  -5  -1  17    0.64    0.80
   5  -1  17    0.91    0.44
   5   1  18   22.52    1.29
  -5   1  18   22.38    1.20
   5  -1  18   21.81    2.15
   5   1  19   86.03    3.63
  -5   1  19   87.59    3.46
   5   1  19   89.20    3.56
   5  -1  19   90.25    4.92
   5  -1  20   10.30    0.92
   5   1  20    9.94    0.95
  -5   1  20   11.85    0.86
   5  -1  20   11.35    1.70
  -5  -1  20   13.03    1.97
   5   1  20   11.42    0.90
   5  -1  21  136.68    5.49
  -5  -1  21  138.91    7.41
   5  -1  21  139.46    7.04
  -5   1  21  145.75    5.40
   5   1  21  144.86    5.62
   5   1  21  148.44    5.52
   5   1  22  215.37    7.79
   5   1  22  211.83    7.86
   5  -1  22  213.28    9.53
  -5  -1  22  186.59    9.66
   5  -1  22  206.55    7.78
  -5   1  22  208.48    7.62
   5   1  23  132.96    5.12
   5   1  23  132.79    5.03
  -5   1  23  121.36    4.82
   5  -1  23  124.03    6.54
   5  -1  23  125.36    5.00
  -5   1  23  117.93    6.80
   5  -1  24   19.81    1.36
   5   1  24   20.27    1.39
   5   1  24   21.57    1.47
  -5   1 -24   20.06    1.46
  -5   1  24   21.24    1.25
  -5   1 -25    3.61    0.86
   5  -1  25    3.02    0.74
   5   1  25    4.44    0.86
   5   1  25    3.60    0.73
  -5   1  25    3.25    0.61
  -5   1  26   28.35    1.53
   5   1  26   27.54    1.67
   5   1  26   29.93    1.75
  -5   1 -26   29.01    1.77
   5  -1  26   28.43    1.66
   5  -1  27  108.17    4.44
   5   1  27  110.86    4.46
  -5   1 -27  107.74    4.52
  -5   1  27  110.29    4.31
   5   1  27  116.79    4.56
   5  -1  28    7.58    0.85
  -5   1  28    7.10    0.72
   5   1  28    6.88    0.88
   5   1  29   17.12    1.23
  -5   1  29   17.51    1.07
   5  -1  29   16.73    1.15
  -5   1  30    5.39    0.58
   5  -1  30    4.49    0.63
   5   1  30    5.32    0.76
   5  -1  31    2.45    0.49
   5   1  31    3.03    0.62
  -5  -1 -31    2.63    0.60
  -5  -1 -32    1.62    0.54
   5  -1  32    1.45    0.42
   5   1  32    1.96    0.53
   5   1  33    1.57    0.46
   5   1  34    3.26    0.44
   6  -1   0  575.40   19.52
   6   1   0  541.31   19.37
   6  -1   0  568.81   19.72
   6  -1  -1   51.63    2.42
   6   1   1   45.62    2.09
   6  -1   1   50.34    2.43
   6   1  -1   44.26    2.09
   6  -1   1   49.70    2.26
   6  -1  -2  121.37    4.84
   6   1  -2  118.76    4.58
   6   1   2  114.64    4.50
   6  -1   2  123.08    4.91
   6  -1   3  199.93    7.34
   6   1  -3  176.63    6.97
   6  -1  -3  204.64    7.28
   6   1   3  185.31    6.89
   6  -1   4   74.29    3.28
   6   1  -4   74.12    3.25
   6  -1   4   77.88    3.50
   6   1   4   76.82    3.11
   6  -1  -4   81.04    3.45
   6   1   5   44.00    2.06
   6  -1   5   47.57    2.48
   6  -1  -5   45.54    2.36
   6   1  -5   45.61    2.27
   6  -1   5   44.94    2.24
   6  -1   6   63.40    2.93
   6   1   6   63.08    2.74
   6   1  -6   62.20    2.96
   6  -1  -6   66.68    3.06
   6  -1   6   65.58    3.15
   6  -1   7  120.39    4.85
   6  -1   7  121.92    5.11
   6   1   7  116.19    4.66
   6   1   8  721.74   25.50
   6  -1   8  763.05   26.03
   6  -1   8  733.01   25.65
   6  -1   9   15.20    1.42
   6  -1   9   14.68    1.26
   6   1   9   13.92    1.08
   6  -1  10   48.21    2.72
   6   1  10   45.63    2.31
   6  -1  10   43.44    2.39
   6   1  11   36.38    2.03
   6  -1  11   36.01    2.38
   6  -1  12   69.82    3.70
   6  -1  13  159.92    6.97
   6  -1  14   59.64    3.47
   6  -1  14   58.89    3.03
   6  -1  15    6.74    1.01
   6  -1  15    9.15    1.32
   6  -1  16   27.71    2.31
   6  -1  16   26.32    1.87
   6   1  16   27.58    1.48
   6   1  16   26.64    1.38
  -6   1  17   43.86    1.93
   6  -1  17   44.77    3.07
   6   1  17   44.21    2.02
   6  -1  17   41.82    2.01
   6  -1  17   43.47    2.54
   6   1  17   44.87    2.10
   6   1  18   73.06    3.15
   6  -1  18   73.16    4.27
  -6   1  18   72.47    2.95
   6  -1  18   71.30    3.06
   6   1  18   76.20    3.07
   6   1  19   76.05    3.04
   6  -1  19   72.37    4.28
   6   1  19   70.61    3.08
  -6   1  19   69.21    2.88
   6  -1  19   67.37    3.01
   6   1  20    3.79    0.65
  -6   1  20    3.38    0.52
   6  -1  20    2.06    0.96
   6  -1  20    3.01    0.66
   6   1  20    3.33    0.70
   6   1  21   12.58    1.02
  -6  -1  21   11.67    1.98
   6   1  21   11.98    1.07
   6  -1  21   11.47    1.02
   6  -1  21   13.14    1.79
  -6   1  21   11.93    0.89
  -6  -1  22  130.06    7.37
   6  -1  22  147.34    7.13
  -6   1  22  137.66    5.31
   6   1  22  142.15    5.58
  -6   1 -22  157.00    5.63
   6   1  22  141.43    5.50
   6  -1  22  134.91    5.47
   6   1  23  259.86    9.44
   6   1  23  251.79    9.35
  -6   1 -23  272.41    9.47
  -6   1  23  247.22    9.16
   6  -1  23  253.86    9.35
   6  -1  23  248.55   11.03
   6  -1  24  391.83   14.06
  -6   1 -24  409.72   14.19
  -6   1  24  395.80   13.88
   6   1  24  401.39   14.17
   6   1  24  379.92   14.05
   6  -1  25    6.82    0.85
   6   1  25    8.55    0.91
  -6   1 -25    9.99    1.04
   6   1  25    8.68    1.01
  -6   1  25    9.12    0.78
   6   1  26   66.80    2.96
   6  -1  26   62.84    2.83
  -6   1 -26   63.57    2.93
  -6   1  26   61.06    2.65
   6   1  27   21.31    1.43
   6  -1  27   22.05    1.37
  -6   1  27   20.53    1.19
   6   1  28   43.09    2.12
   6  -1  28   40.33    2.01
   6   1  29    6.21    0.82
   6  -1  29    5.97    0.71
   6   1  30    9.30    0.89
  -6  -1 -30    8.72    0.83
   6  -1  30    8.39    0.75
   6  -1  31    2.79    0.48
  -6  -1 -31    3.55    0.60
   6   1  31    2.97    0.59
   6   1  32    2.44    0.52
   6   1  33   10.52    0.73
   7  -1   0   50.47    2.56
   7   1   0   46.17    2.21
   7  -1  -1   25.66    1.76
   7  -1   1   30.85    1.90
   7  -1   1   32.26    1.76
   7   1   1   29.37    1.55
   7   1  -1   24.84    1.49
   7  -1   2   71.30    3.32
   7   1   2   66.00    2.90
   7   1  -2   63.45    2.93
   7  -1   3  234.30    8.72
   7   1  -3  216.79    8.32
   7  -1  -3  229.59    8.58
   7   1   3  222.77    8.21
   7  -1   4  361.70   13.48
   7  -1  -4  397.38   13.75
   7   1   4  362.04   13.29
   7   1  -4  371.31   13.48
   7  -1   4  399.57   13.83
   7  -1   5  105.44    4.41
   7   1  -5   98.55    4.33
   7  -1   5  112.28    4.68
   7   1   5  102.51    4.17
   7  -1  -5  103.48    4.53
   7   1   6   51.87    2.42
   7  -1   6   55.23    2.85
   7  -1  -6   54.27    2.76
   7  -1   6   50.59    2.60
   7   1  -6   47.27    2.56
   7   1   7    0.58    0.42
   7  -1   7    0.63    0.67
   7  -1  -7    0.47    0.67
   7  -1   7    0.65    0.69
   7  -1   8  584.19   20.53
   7  -1  -8  608.65   20.82
   7  -1   8  593.42   20.90
   7   1   8  551.03   20.29
   7  -1   9  102.31    4.66
   7  -1   9  101.00    4.35
   7  -1  -9   94.91    4.52
   7  -1  10   21.39    1.65
   7  -1  10   24.30    1.88
   7  -1  11  593.11   21.03
   7  -1  11  564.49   20.53
   7  -1  12  127.35    5.72
   7  -1  12  120.35    5.25
   7  -1  13   17.97    1.53
   7  -1  13   16.49    1.68
   7  -1  14   46.14    2.64
   7   1  14   46.58    2.13
   7  -1  14   49.02    3.09
   7   1 -14   47.48    2.31
   7   1  15    3.78    0.53
   7  -1  15    3.57    0.88
   7   1  15    3.84    0.54
   7   1  15    4.05    0.62
   7  -1  15    5.66    1.14
   7   1 -15    3.18    0.73
   7  -1  16   13.44    1.35
   7   1  16   11.60    0.93
   7  -1  16   10.86    1.53
   7  -1  16   11.68    0.89
   7   1  16   11.07    0.86
   7   1  16   11.29    0.81
   7   1 -16   10.35    1.06
   7   1  17   19.71    1.22
   7   1  17   21.94    1.34
   7  -1  17   22.21    2.13
   7  -1  17   20.97    1.72
   7  -1  17   20.63    1.27
  -7   1 -18   32.70    1.68
   7  -1  18   29.52    2.53
   7   1  18   32.03    1.74
   7   1  18   30.88    1.62
   7  -1  18   29.25    1.62
   7  -1  19   11.51    1.00
   7   1  19   15.83    1.16
   7  -1  19   14.75    1.80
   7   1  19   14.47    1.06
  -7   1 -19   15.84    1.12
   7  -1  20   21.40    2.20
  -7   1 -20   21.65    1.39
   7   1  20   20.49    1.30
   7  -1  20   18.20    1.30
   7   1  20   19.15    1.38
   7   1  21   14.00    1.12
  -7  -1  21   15.27    2.22
   7   1  21   14.44    1.23
   7  -1  21   15.11    1.14
  -7   1 -21   15.23    1.16
   7  -1  21   15.70    1.95
  -7   1 -22   33.38    1.86
  -7  -1  22   30.30    3.10
   7   1  22   36.85    1.95
   7  -1  22   31.10    1.78
   7   1  22   33.99    1.86
   7   1  23   93.44    3.90
   7  -1  23   90.27    3.81
  -7   1 -23   91.36    3.89
  -7   1 -24  104.10    4.20
   7   1  24  102.87    4.21
   7  -1  24   94.25    4.06
  -7   1 -25    0.04    0.70
   7   1  25    0.21    0.61
   7  -1  25   -0.26    0.51
   7   1  26   43.96    2.22
   7  -1  26   41.79    2.09
   7   1  27   28.11    1.66
   7  -1  27   28.44    1.56
  -7  -1 -28   19.90    1.25
   7  -1  28   18.78    1.21
   7   1  28   20.56    1.33
   7  -1  29    2.60    0.52
   7   1  29    2.73    0.64
  -7  -1 -30    0.14    0.46
   7  -1  30   -0.02    0.39
   7   1  30   -0.06    0.48
   7   1  31    5.37    0.64
   7   1  32    1.72    0.45
   7   1  33   25.01    1.19
   8   1   0    0.40    0.46
   8  -1   0    0.24    0.65
   8   1   1   33.33    1.83
   8  -1   1   38.35    2.23
   8   1  -1   34.36    1.88
   8  -1  -1   33.88    2.14
   8   1  -2   26.04    1.63
   8  -1   2   30.08    2.00
   8   1   2   27.97    1.59
   8  -1  -2   27.46    1.87
   8  -1   3    0.90    0.65
   8   1   3    1.84    0.51
   8  -1  -3    1.02    0.70
   8   1  -3    1.11    0.53
   8  -1   4  172.35    7.03
   8   1  -4  183.22    7.05
   8  -1   4  195.41    7.41
   8   1   4  168.72    6.79
   8  -1  -4  191.62    7.30
   8  -1   5  176.36    6.94
   8   1   5  155.90    6.36
   8  -1  -5  173.79    6.84
   8   1  -5  165.63    6.63
   8  -1   5  168.67    6.62
   8   1  -6  228.97    9.18
   8  -1  -6  250.95    9.40
   8  -1   6  237.61    9.16
   8  -1   6  252.21    9.50
   8   1  -7   52.55    2.89
   8  -1  -7   55.47    3.03
   8  -1   7   59.03    3.12
   8  -1   7   56.29    2.86
   8  -1   8    3.86    0.83
   8  -1   8    2.17    0.72
   8  -1  -8    3.28    0.85
   8  -1   9  122.47    5.27
   8  -1   9  121.02    5.55
   8  -1  -9  127.52    5.57
   8  -1  10  135.26    6.14
   8  -1  10  134.59    5.79
   8  -1 -10  147.41    6.24
   8  -1  11  106.47    4.87
   8  -1  11  114.56    5.29
   8  -1 -11  112.50    5.31
   8  -1 -12    5.61    1.12
   8  -1  12    4.95    0.99
   8  -1  12    5.06    0.94
   8   1  13   30.47    1.47
   8   1 -13   33.91    1.76
   8  -1  13   30.70    2.09
   8  -1  13   26.97    2.26
   8  -1 -13   29.19    1.67
   8   1  13   30.29    1.59
   8  -1  14   38.02    2.71
   8  -1  14   35.40    2.33
   8   1  14   37.07    1.72
  -8   1 -14   36.30    1.71
   8   1 -14   39.61    2.03
   8   1  14   36.75    1.84
   8  -1 -14   38.35    1.99
   8  -1  14   37.76    1.80
   8  -1  15   39.19    1.87
   8  -1  15   37.64    2.77
  -8   1 -15   36.99    1.79
   8  -1  15   37.60    2.44
   8   1  15   39.66    1.79
   8   1  15   39.51    1.95
   8   1 -15   42.22    2.16
   8  -1  16   53.01    3.06
   8   1  16   58.67    2.57
   8   1 -16   58.42    2.77
   8  -1  16   51.92    2.44
   8  -1  16   51.95    3.45
   8   1  16   58.09    2.39
  -8   1 -16   54.60    2.42
  -8   1 -17   64.70    2.81
   8   1  17   70.31    2.77
   8  -1  17   68.86    4.06
   8  -1  17   60.57    2.82
   8  -1  17   63.78    3.46
   8   1  17   69.75    2.96
   8   1  18    4.78    0.79
   8  -1  18    4.59    1.23
   8  -1  18    5.62    0.74
  -8   1 -18    5.52    0.73
   8   1  18    6.78    0.72
   8  -1  19   17.03    1.18
   8   1  19   16.20    1.06
   8  -1  19   17.86    1.97
  -8   1 -19   14.94    1.15
   8   1  19   16.20    1.25
  -8   1 -20   22.62    1.39
   8  -1  20   19.33    1.32
   8   1  20   19.52    1.40
   8   1  21    1.91    0.72
  -8   1 -21    1.51    0.63
   8  -1  21    1.67    0.60
  -8   1 -22   20.44    1.41
   8   1  22   19.99    1.41
   8  -1  22   19.73    1.33
   8   1  23   16.46    1.28
   8  -1  23   14.06    1.12
   8  -1  24    9.38    0.92
   8   1  24   11.32    1.07
   8  -1  25    5.30    0.66
   8  -1  25    5.41    0.74
   8   1  25    5.17    0.82
   8   1  26    6.34    0.87
   8  -1  26    7.17    0.80
  -8  -1 -27    1.43    0.55
   8  -1  27    1.23    0.50
   8   1  27    1.78    0.66
   8  -1  28    5.10    0.65
  -8  -1 -28    5.47    0.71
   8   1  28    5.86    0.78
   8   1  29   17.87    1.15
  -8  -1 -29   18.20    1.13
   8  -1  29   16.54    1.03
   8   1  30    5.06    0.66
   8   1  31    8.20    0.71
   8   1  32   32.32    1.46
   9  -1   0   13.26    1.37
   9   1   0   11.81    1.06
   9   1   1  218.99    8.71
   9   1  -1  227.57    8.79
   9  -1   1  250.52    9.31
   9  -1  -1  252.55    9.28
   9  -1   2   33.22    2.19
   9   1  -2   29.99    1.84
   9   1   2   28.54    1.75
   9  -1  -2   31.81    2.11
   9   1  -3   19.35    1.44
   9  -1   3   18.18    1.62
   9  -1  -3   19.38    1.64
   9   1  -4   31.46    1.99
   9  -1  -4   34.37    2.25
   9  -1   4   38.22    2.36
   9  -1   5  110.37    4.83
   9  -1  -5  117.91    5.10
   9  -1   5  109.54    5.09
   9   1  -5  108.07    4.84
   9  -1  -6   27.42    1.99
   9  -1   6   25.11    1.83
   9   1  -6   23.42    1.79
   9  -1   6   25.01    1.95
   9  -1   7   13.70    1.44
   9  -1  -7   15.33    1.53
   9  -1   7   15.44    1.44
   9   1  -7   13.41    1.39
   9  -1  -8    2.51    0.86
   9  -1   8    2.18    0.81
   9  -1   8    2.61    0.89
   9  -1  -9    2.66    0.86
   9  -1   9    1.25    0.77
   9  -1   9    2.03    0.80
   9  -1  10    4.17    1.01
   9   1 -10    4.01    0.67
   9  -1  10    3.32    0.88
   9   1  10    4.58    0.62
   9   1  10    3.76    0.54
   9  -1 -10    4.03    1.00
   9  -1 -11   17.84    1.82
   9  -1  11   19.55    1.81
   9  -1 -11   19.73    1.28
   9   1  11   18.85    1.10
   9   1  11   19.37    1.19
   9  -1  11   18.71    1.64
   9   1 -11   18.49    1.25
   9  -1  12    2.96    0.87
   9   1 -12    2.12    0.63
   9  -1  12    1.56    0.45
   9  -1 -12    0.91    0.54
   9  -1 -12    1.32    0.85
   9   1  12    1.46    0.49
   9   1  12    1.68    0.51
   9  -1  12    1.35    0.83
   9  -1  13   46.12    2.78
   9  -1  13   47.21    2.14
   9  -1 -13   44.29    2.29
   9   1  13   43.72    2.17
   9   1  13   47.65    2.08
   9  -1  13   49.04    3.11
   9   1 -13   49.12    2.36
   9  -1 -14    3.12    0.77
   9   1  14    3.93    0.65
   9  -1  14    4.04    0.96
   9  -1  14    4.00    0.61
   9   1 -14    4.20    0.81
   9   1  14    3.94    0.63
   9  -1  14    2.96    0.94
   9  -1  15   57.24    2.58
   9  -1  15   58.32    3.25
   9  -1  15   55.78    3.57
   9   1  15   57.91    2.49
   9   1  15   59.34    2.66
   9   1 -15   59.47    2.87
   9   1  16  497.33   17.13
   9  -1  16  475.56   17.23
   9   1  16  492.77   17.33
   9  -1  16  504.16   18.82
   9   1 -16  500.27   17.56
   9  -1  16  495.57   18.11
   9   1  17  466.50   16.18
   9  -1  17  450.28   16.30
   9  -1  17  460.86   17.86
   9   1  17  476.43   16.41
   9   1  18    2.56    0.77
   9   1  18    3.14    0.68
   9  -1  18    2.63    0.62
   9   1  19   19.27    1.39
   9  -1  19   17.13    1.23
   9   1  19   18.85    1.20
   9  -1  20    0.71    0.58
   9   1  20    1.03    0.56
   9   1  20    0.63    0.66
   9   1  21  108.92    4.47
   9   1 -21  112.70    4.40
   9  -1  21  104.07    4.35
   9  -1  22    1.01    0.59
   9   1  22    1.13    0.70
   9   1  23    6.71    0.92
   9  -1  23    6.62    0.82
   9  -1  23    6.83    0.78
   9  -1  24    0.86    0.55
   9   1  24    0.40    0.63
  -9  -1 -24    0.20    0.50
   9  -1  24    0.60    0.54
  -9  -1 -25    0.97    0.53
   9  -1  25    0.91    0.54
   9  -1  25    1.15    0.52
   9   1  25    2.06    0.69
   9   1  26   38.98    1.99
   9  -1  26   35.76    1.85
  -9  -1 -26   41.08    1.92
   9  -1  27    0.48    0.45
  -9  -1 -27    0.46    0.52
   9   1  27    0.78    0.59
   9   1  28    6.13    0.74
   9   1  29    0.36    0.49
   9   1  30    2.21    0.50
   9   1  31   18.29    0.99
  10  -1   0  326.92   12.51
  10   1  -1   79.73    3.83
  10  -1  -1   87.97    4.29
  10  -1   1   95.20    4.39
  10  -1  -2  211.22    8.19
  10  -1   2  206.57    8.17
  10  -1   3  211.79    8.34
  10  -1  -3  211.89    8.30
  10  -1  -4  135.90    5.83
  10  -1   4  134.65    5.84
  10   1  -5   69.56    3.62
  10  -1   5   78.67    3.98
  10  -1  -5   73.22    3.84
  10  -1  -6  129.94    5.88
  10   1  -6  120.42    5.64
  10   1   7   26.43    1.41
  10  -1   7   20.58    1.89
  10  -1  -7   23.10    1.98
  10   1   8   56.88    2.52
  10  -1   8   55.78    3.32
  10  -1  -8   59.34    2.55
  10  -1  -8   56.02    3.36
  10   1   8   56.17    2.42
  10   1   9   37.66    1.87
  10  -1  -9   37.42    2.67
  10   1   9   37.02    1.77
  10  -1   9   35.41    2.56
  10  -1   9   36.80    2.42
  10  -1  -9   38.55    1.93
  10   1  10   70.48    2.90
  10  -1  10   66.96    2.90
  10  -1  10   68.23    3.65
  10   1  10   69.40    3.00
  10  -1 -10   70.00    3.99
  10  -1  10   72.39    3.93
  10  -1 -10   75.38    3.11
  10  -1 -11   63.53    3.90
  10  -1 -11   68.02    3.03
  10   1  11   69.33    2.97
  10  -1  11   63.72    3.78
  10  -1  11   66.50    3.59
  10   1  11   70.71    2.85
  10  -1  11   66.33    2.85
  10  -1  12   18.67    1.21
  10   1  12   21.09    1.24
  10  -1  12   18.51    1.86
  10   1  12   20.67    1.33
  10  -1 -12   21.74    1.45
  10  -1  13   10.78    1.37
  10  -1  13   10.59    0.90
  10   1  13   11.02    0.97
  10  -1  13    8.05    1.32
  10   1 -13   11.57    1.14
  10  -1 -13    9.77    1.10
  10   1  13    9.89    0.90
  10  -1  14   29.03    1.65
  10   1 -14   31.49    1.94
  10  -1 -14   30.12    1.89
  10  -1  14   30.90    2.51
  10   1  14   32.44    1.75
  10   1  14   32.54    1.64
  10  -1  14   32.38    2.32
  10  -1  15  138.87    5.44
  10   1  15  142.95    5.54
  10  -1 -15  138.81    5.70
  10  -1  15  137.35    6.67
  10  -1  15  138.02    6.24
  10   1  15  142.58    5.36
  10   1 -15  147.41    5.76
  10  -1  16  180.42    6.97
  10   1  16  192.06    7.10
  10   1  16  182.61    6.86
  10  -1  16  179.88    7.78
  10   1 -16  199.18    7.34
  10   1  17  188.13    7.02
  10  -1  17  180.41    6.91
  10   1  17  183.19    6.81
  10   1 -17  183.56    7.22
  10   1  18  288.40   10.12
  10  -1  18  272.57   10.21
  10   1  18  284.88   10.34
  10  -1  19  202.74    7.78
  10   1  19  209.78    7.89
  10   1  19  215.08    7.69
  10  -1  20   24.89    1.53
  10   1  20   26.84    1.67
  10   1  20   24.81    1.45
  10  -1  21   19.64    1.33
  10   1  21   20.19    1.26
  10  -1  21   20.96    1.29
  10   1  21   20.48    1.42
  10   1 -21   21.86    1.39
  10  -1  22   43.70    2.21
  10  -1  22   48.87    2.16
  10   1  22   48.58    2.36
  10   1 -22   44.18    2.21
  10  -1  23    4.87    0.70
  10  -1  23    4.64    0.71
  10   1  23    5.56    0.85
  10   1  24    6.25    0.85
  10  -1  24    6.72    0.77
  10  -1  24    7.75    0.76
  10  -1  25    0.28    0.49
  10   1  25    0.15    0.62
  10  -1  25    0.51    0.49
  10  -1  26   31.70    1.53
  10   1  26   34.37    1.76
  10   1  27    9.36    0.87
  10   1  28    2.18    0.56
  10   1  29   12.71    0.88
  10   1  30    3.67    0.50
  11   1   0    1.09    0.47
  11   1   0    0.95    0.47
  11  -1   0    0.27    0.68
  11   1  -1    4.66    0.63
  11   1  -1    4.48    0.64
  11   1   1    6.35    0.71
  11  -1   1    6.64    1.15
  11  -1  -1    4.46    1.03
  11   1   1    5.79    0.67
  11   1   2   62.04    2.68
  11   1  -2   58.88    2.65
  11   1  -2   61.13    2.62
  11  -1  -2   66.70    3.59
  11  -1   2   63.91    3.56
  11  -1  -3   92.30    3.75
  11  -1   3   94.30    4.73
  11   1  -3   90.18    3.70
  11   1   3  103.10    3.84
  11  -1  -3   96.29    4.72
  11  -1   3   95.03    3.61
  11   1  -3   89.65    3.78
  11  -1  -4  100.65    3.88
  11   1   4   95.31    3.88
  11  -1  -4  102.68    4.89
  11   1   4   92.04    3.77
  11  -1   4   94.39    3.69
  11   1  -4   97.86    3.82
  11   1  -4   99.25    3.91
  11  -1   4   98.18    4.84
  11  -1  -5   49.35    3.13
  11  -1   5   50.50    2.16
  11   1  -5   51.81    2.35
  11   1  -5   46.13    2.87
  11   1   5   49.59    2.24
  11   1  -5   51.35    2.27
  11   1   5   54.40    2.36
  11  -1  -5   53.39    2.33
  11  -1   5   47.66    2.22
  11  -1   5   54.65    3.20
  11  -1  -6   23.68    1.33
  11   1  -6   21.43    1.81
  11  -1   6   18.59    1.84
  11   1   6   19.88    1.25
  11  -1  -6   21.48    1.98
  11  -1   6   20.90    1.15
  11  -1   6   19.17    1.18
  11   1   6   19.06    1.20
  11  -1  -7    8.91    0.84
  11  -1   7    7.21    1.20
  11  -1   7    8.92    0.74
  11   1   7    7.65    0.80
  11  -1  -7    6.22    1.20
  11  -1   7    7.18    0.72
  11  -1  -8   52.54    3.35
  11  -1  -8   54.52    2.51
  11  -1   8   54.77    2.32
  11  -1   8   53.25    2.39
  11   1   8   53.32    2.47
  11  -1   8   54.14    3.34
  11   1   9   23.31    1.45
  11   1   9   24.95    1.42
  11  -1  -9   24.44    1.52
  11  -1   9   23.19    2.07
  11  -1   9   23.98    1.37
  11  -1  -9   24.64    2.22
  11   1  10   82.09    3.54
  11  -1  10   82.50    3.46
  11  -1  10   83.46    4.50
  11  -1 -10   85.94    3.67
  11   1  10   87.16    3.48
  11  -1 -10   88.50    4.74
  11   1  11    9.86    0.92
  11  -1 -11    8.24    1.48
  11  -1  11    8.94    0.84
  11   1  11    9.33    0.94
  11  -1  11   10.74    1.45
  11  -1 -11   10.92    1.10
  11  -1  12   51.60    2.46
  11  -1  12   55.08    3.48
  11   1  12   55.23    2.47
  11   1  12   56.81    2.61
  11  -1 -12   55.67    2.74
  11  -1  13   -0.07    0.57
  11   1  13    0.54    0.69
  11   1  13    0.35    0.59
  11  -1 -13    0.24    0.75
  11  -1  14  148.58    5.90
  11   1  14  156.26    6.02
  11   1  14  157.07    5.87
  11  -1 -14  158.49    6.23
  11  -1  15   31.03    1.75
  11   1  15   31.97    1.74
  11   1  15   33.13    1.84
  11  -1 -15   34.28    2.08
  11  -1  16   11.42    1.00
  11   1  16   12.06    1.06
  11   1 -16   13.15    1.37
  11   1  16   10.04    1.04
  11  -1  17   87.43    3.35
  11   1  17   77.19    3.48
  11   1  17   80.94    3.36
  11  -1  17   76.51    3.39
  11   1 -17   73.77    3.68
  11   1  18    0.75    0.68
  11   1  18    1.06    0.72
  11  -1  18    1.13    0.60
  11  -1  18    1.51    0.69
  11  -1  19   21.54    1.43
  11   1  19   23.51    1.45
  11   1  19   24.26    1.58
  11  -1  19   26.69    1.47
  11  -1  20  188.31    7.37
  11   1  20  195.98    7.30
  11   1 -20  202.70    7.49
  11  -1  20  202.34    7.30
  11   1  20  204.44    7.53
  11  -1  21   13.57    1.09
  11   1 -21   16.58    1.22
  11   1  21   13.06    1.05
  11   1  21   15.04    1.22
  11  -1  21   16.01    1.11
  11  -1  22   14.70    1.06
  11   1  22   13.30    1.16
  11  -1  22   12.92    1.04
  11   1  22   13.56    1.02
  11   1 -22   14.92    1.14
  11  -1  23    2.44    0.58
  11   1  23    4.33    0.77
  11   1 -23    2.89    0.62
  11  -1  23    3.60    0.63
  11   1  24    3.19    0.71
  11  -1  24    3.75    0.63
  11   1  25    7.91    0.86
  11  -1  25    7.40    0.71
  11  -1  26    3.44    0.55
  11   1  26    3.57    0.63
  11   1  27    0.41    0.49
  11   1  28    1.76    0.49
  11   1  29   12.89    0.81
  12  -1   0  136.72    5.27
  12  -1   0  145.99    6.48
  12   1   0  134.39    5.26
  12   1   0  139.88    5.36
  12   1  -1   58.95    2.65
  12  -1  -1   59.59    3.55
  12  -1   1   56.47    2.44
  12   1  -1   58.38    2.58
  12  -1   1   61.31    3.57
  12   1   1   59.86    2.59
  12   1   1   54.06    2.60
  12  -1  -1   60.14    2.60
  12  -1   1   59.04    2.57
  12   1  -2   33.34    1.66
  12  -1  -2   30.66    1.63
  12   1  -2   27.12    1.64
  12   1   2   29.11    1.65
  12  -1   2   31.81    1.53
  12  -1  -2   29.50    2.37
  12  -1   2   30.38    1.62
  12   1   2   30.79    1.64
  12  -1   2   31.26    2.42
  12   1   3   43.39    2.17
  12  -1  -3   48.38    3.09
  12   1  -3   44.64    2.21
  12   1  -3   46.39    2.15
  12  -1   3   44.91    2.96
  12  -1   3   45.47    2.02
  12  -1   3   43.11    2.08
  12  -1  -3   45.49    2.15
  12   1  -4   31.03    1.64
  12   1   4   32.32    1.75
  12  -1  -4   31.44    1.70
  12  -1   4   31.74    2.44
  12   1  -4   31.18    1.73
  12  -1   4   31.48    1.63
  12  -1   4   31.10    1.55
  12  -1  -5    4.22    1.09
  12   1   5    2.70    0.62
  12   1  -5    3.57    0.69
  12  -1   5    2.93    0.59
  12  -1   5    3.20    0.58
  12  -1  -5    3.95    0.69
  12   1   5    2.52    0.64
  12  -1   5    3.78    1.00
  12   1  -5    3.44    0.63
  12   1   6    7.37    0.83
  12   1   6    7.73    0.85
  12  -1   6    6.94    0.75
  12  -1  -6    6.82    1.30
  12  -1   6    7.44    0.73
  12   1  -6    6.86    0.85
  12  -1   6    5.53    1.15
  12  -1  -6    8.33    0.88
  12   1  -7   21.89    1.42
  12  -1   7   22.36    1.25
  12  -1  -7   19.49    2.02
  12  -1   7   21.00    2.00
  12   1   7   20.78    1.34
  12  -1  -7   21.38    1.40
  12  -1   7   19.20    1.27
  12   1   7   22.37    1.42
  12   1   8   19.98    1.36
  12  -1   8   19.27    1.94
  12  -1  -8   22.08    1.43
  12  -1   8   19.07    1.25
  12   1  -8   20.46    1.42
  12  -1   8   19.44    1.20
  12  -1  -8   19.31    2.10
  12  -1  -9   16.10    1.92
  12   1   9   15.01    1.21
  12  -1   9   12.50    1.02
  12  -1   9   15.01    1.05
  12  -1   9   13.78    1.70
  12  -1  -9   14.43    1.27
  12   1  10    3.36    0.77
  12  -1  10    3.45    0.67
  12  -1  10    4.10    0.72
  12  -1 -10    3.08    1.13
  12   1  10    4.17    0.81
  12  -1 -10    4.44    0.87
  12  -1  11   12.86    1.05
  12  -1 -11   15.81    1.34
  12  -1  11   15.03    1.10
  12   1  11   14.63    1.17
  12   1  11   13.98    1.17
  12  -1 -11   11.27    1.73
  12   1  12    4.10    0.83
  12  -1  12    4.51    0.73
  12   1  12    4.18    0.84
  12  -1 -12    4.06    0.89
  12  -1  12    4.69    0.79
  12  -1  13   14.85    1.17
  12   1  13   14.75    1.26
  12   1  13   17.59    1.27
  12  -1 -13   17.53    1.45
  12  -1  14    4.90    0.77
  12   1  14    5.77    0.89
  12  -1 -14    4.14    1.01
  12   1  14    5.80    0.86
  12  -1  15   41.48    2.14
  12   1  15   46.39    2.32
  12   1  15   41.44    2.16
  12  -1  15   45.82    2.15
  12  -1  16   89.40    3.88
  12   1  16   95.60    4.03
  12   1  16   96.16    3.90
  12  -1  16   97.78    3.86
  12   1  17  173.17    6.58
  12   1  17  179.10    6.73
  12  -1  17  164.02    6.58
  12  -1  17  182.69    6.55
  12  -1  18  190.62    7.40
  12   1  18  208.18    7.57
  12  -1  18  203.43    7.36
  12   1  18  195.38    7.37
  12  -1  19   94.00    3.96
  12   1  19   99.56    4.11
  12   1  19   96.48    3.93
  12  -1  19  100.50    3.94
  12  -1  20   27.26    1.58
  12   1 -20   29.90    1.70
  12  -1  20   29.24    1.60
  12   1  20   28.94    1.61
  12   1  20   30.27    1.73
  12   1 -21   10.20    0.99
  12  -1  21    9.49    0.93
  12   1  21    9.45    0.98
  12   1 -22    3.07    0.68
  12   1  22    3.32    0.72
  12  -1  22    2.65    0.66
  12  -1  23   16.41    1.07
  12   1  23   15.70    1.15
  12   1 -23   14.10    1.04
  12   1  23   15.94    1.04
  12  -1  24    8.48    0.77
  12   1  24    8.41    0.86
  12   1  25    6.77    0.75
  12  -1  25    5.65    0.64
  12  -1  26   14.27    0.88
  12   1  26   16.30    1.01
  12   1  27   12.93    0.87
  12   1  28    2.56    0.42
  13  -1   0   47.71    2.26
  13   1   0   46.53    2.32
  13  -1   0   45.64    3.14
  13   1   0   47.60    2.27
  13  -1  -1    1.49    0.89
  13  -1  -1    0.81    0.55
  13   1   1    1.03    0.68
  13  -1   1    0.81    0.52
  13  -1   1    0.76    0.55
  13   1  -1    1.66    0.65
  13  -1   1    1.16    0.84
  13   1  -1    1.26    0.58
  13   1   1    1.51    0.65
  13  -1  -2   65.49    2.98
  13  -1   2   65.07    2.93
  13   1   2   72.98    3.09
  13   1  -2   67.46    2.95
  13  -1   2   63.74    2.81
  13  -1  -2   66.01    3.94
  13   1  -2   70.58    3.08
  13  -1   2   69.34    4.02
  13   1   2   70.81    3.00
  13   1   3    1.69    0.64
  13  -1   3    0.42    0.79
  13  -1  -3    1.09    0.90
  13   1   3    1.86    0.67
  13  -1   3    1.09    0.54
  13   1  -3    2.58    0.73
  13  -1  -3    1.57    0.57
  13  -1   3    1.83    0.60
  13   1  -3    1.40    0.64
  13  -1   4   15.10    1.13
  13   1   4   17.28    1.24
  13  -1  -4   13.39    1.72
  13  -1   4   15.99    1.09
  13  -1  -4   15.05    1.20
  13   1  -4   16.63    1.17
  13  -1   4   13.29    1.63
  13   1  -4   14.44    1.22
  13   1   4   16.21    1.21
  13   1  -5   18.37    1.41
  13  -1   5   21.14    2.02
  13  -1   5   19.73    1.29
  13   1   5   18.44    1.33
  13  -1  -5   20.43    1.36
  13  -1  -5   16.82    1.92
  13  -1   5   18.74    1.20
  13  -1   6   21.01    1.37
  13  -1  -6   24.43    2.27
  13   1   6   25.24    1.53
  13   1  -6   21.76    1.53
  13  -1  -6   25.10    1.55
  13  -1   6   22.07    1.35
  13   1  -7   15.91    1.33
  13  -1  -7   15.04    1.92
  13  -1   7   18.02    1.19
  13   1   7   18.40    1.34
  13  -1   7   17.17    1.20
  13  -1  -7   16.72    1.33
  13  -1   8   89.20    3.88
  13  -1  -8   96.74    5.27
  13   1   8   99.87    4.04
  13  -1   8   94.81    3.82
  13   1   8   96.73    3.93
  13  -1  -8   98.06    4.09
  13   1  -8   95.40    4.08
  13  -1   9   90.84    3.83
  13  -1   9   96.32    3.78
  13  -1  -9   94.96    4.04
  13   1  -9   94.50    4.04
  13  -1  -9   82.55    5.04
  13   1   9   91.07    3.92
  13   1 -10    0.28    0.77
  13   1  10    0.71    0.67
  13  -1 -10    0.99    0.79
  13  -1 -10    0.13    0.88
  13  -1  10    0.65    0.68
  13  -1  10    0.73    0.60
  13  -1  11   40.26    1.97
  13   1  11   35.77    1.99
  13  -1 -11   40.14    2.24
  13  -1  11   38.52    1.99
  13   1 -11   35.62    2.15
  13   1  11   39.62    2.09
  13  -1  12  151.02    6.04
  13   1  12  151.52    6.05
  13  -1 -12  164.75    6.38
  13   1  12  164.50    6.18
  13  -1  12  161.07    6.00
  13  -1  13    6.05    0.85
  13   1  13    6.17    0.88
  13  -1 -13    5.20    1.02
  13   1  13    5.51    0.97
  13  -1  13    5.49    0.89
  13  -1  14    3.32    0.71
  13   1  14    2.45    0.83
  13   1  14    2.43    0.81
  13  -1 -14    1.83    0.95
  13   1  15   85.72    3.59
  13  -1  15   76.44    3.40
  13   1  15   80.84    3.44
  13  -1  16   11.82    1.03
  13  -1  16   12.79    1.12
  13   1  16   11.77    1.15
  13   1  16   12.64    1.18
  13  -1  17   86.00    3.74
  13   1  17   96.29    3.92
  13   1  17   90.08    3.78
  13  -1  17   95.17    3.78
  13  -1  18    3.49    0.79
  13   1  18    2.86    0.78
  13  -1  19   25.13    1.51
  13   1  19   25.64    1.59
  13   1 -19   26.61    1.60
  13   1  20   62.17    2.82
  13  -1  20   61.52    2.70
  13   1 -20   62.42    2.80
  13   1  21   29.33    1.65
  13  -1  21   29.99    1.59
  13   1 -21   28.84    1.63
  13   1  21   30.40    1.60
  13   1 -22   34.41    1.77
  13   1  22   34.57    1.72
  13   1  22   35.55    1.81
  13  -1  22   36.29    1.74
  13   1 -23    0.63    0.47
  13  -1  23    1.24    0.56
  13   1  23    0.76    0.53
  13   1  23    0.63    0.46
  13   1 -24    1.98    0.48
  13   1  24    2.41    0.56
  13  -1  24    2.51    0.55
  13  -1  25    1.39    0.44
  13   1  25    1.81    0.50
  13   1  26    3.97    0.51
  13   1  27   15.03    0.83
  14  -1   0    0.34    0.56
  14   1   0    0.99    0.65
  14   1   0    0.46    0.69
  14  -1   0    0.89    0.85
  14  -1  -1   20.40    2.04
  14  -1  -1   20.82    1.38
  14   1   1   21.66    1.47
  14  -1   1   19.93    1.37
  14  -1   1   18.26    1.97
  14   1  -1   23.09    1.48
  14   1   1   21.54    1.42
  14   1  -1   20.32    1.39
  14  -1   2    3.14    0.71
  14  -1  -2    3.06    1.08
  14  -1  -2    3.04    0.75
  14   1   2    2.44    0.79
  14   1  -2    3.51    0.82
  14   1   2    3.44    0.75
  14  -1   2    2.76    0.65
  14   1  -2    2.71    0.68
  14  -1  -3    2.86    0.73
  14  -1  -3    2.90    1.05
  14  -1   3    3.10    0.69
  14  -1   3    4.35    0.75
  14   1   3    2.89    0.79
  14   1  -3    3.28    0.81
  14   1  -3    4.16    0.76
  14   1   3    4.00    0.78
  14  -1   4   13.72    1.12
  14   1   4   15.40    1.21
  14  -1  -4   16.25    1.90
  14   1   4   13.26    1.20
  14   1  -4   15.04    1.30
  14  -1  -4   16.03    1.20
  14  -1   4   12.74    1.07
  14   1  -4   14.92    1.16
  14  -1  -5  172.28    7.91
  14   1   5  179.99    6.62
  14   1   5  174.58    6.54
  14   1  -5  175.64    6.63
  14  -1   5  159.81    6.45
  14  -1  -5  177.28    6.64
  14  -1   5  162.75    6.37
  14  -1   6  283.40   11.03
  14  -1  -6  329.43   11.23
  14  -1  -6  289.18   12.50
  14   1  -6  307.78   11.24
  14   1   6  320.88   11.19
  14  -1   6  297.13   10.96
  14   1   6  317.75   11.14
  14  -1   7  219.51    8.28
  14   1   7  232.62    8.41
  14  -1  -7  223.89    9.85
  14   1  -7  222.65    8.45
  14  -1  -7  222.17    8.42
  14  -1   7  218.32    8.18
  14   1   7  231.23    8.37
  14   1   8    7.04    1.06
  14  -1   8    6.31    0.91
  14  -1   8    5.38    0.87
  14   1   8    7.29    0.98
  14   1  -8    6.09    1.01
  14  -1  -8    5.96    0.98
  14   1   9   89.46    3.82
  14  -1   9   88.08    3.67
  14   1  -9   89.33    3.94
  14  -1   9   87.48    3.70
  14  -1  -9   89.71    3.92
  14   1  10  143.43    5.38
  14  -1 -10  128.76    5.39
  14  -1  10  129.82    5.14
  14  -1  10  129.13    5.18
  14   1 -10  133.40    5.42
  14  -1 -11   20.37    1.58
  14   1  11   21.95    1.47
  14  -1  11   16.02    1.26
  14  -1  11   20.94    1.39
  14   1 -11   21.14    1.63
  14  -1  12   43.43    2.23
  14  -1  12   50.15    2.29
  14   1 -12   48.50    2.60
  14   1  12   47.62    2.39
  14  -1 -12   42.94    2.48
  14   1  13   26.65    1.67
  14   1 -13   26.27    1.82
  14  -1  13   27.72    1.57
  14  -1  13   22.22    1.44
  14  -1 -13   22.98    1.72
  14   1 -14    0.88    1.00
  14   1  14    0.41    0.74
  14  -1  14    0.50    0.56
  14  -1  14    0.57    0.74
  14  -1 -14    0.45    0.82
  14   1  15   26.97    1.66
  14   1  16   33.06    1.86
  14   1  17    0.28    0.65
  14  -1  17    0.60    0.71
  14   1  17   -0.08    0.65
  14   1 -18    4.48    0.83
  14  -1  18    3.44    0.76
  14   1  18    3.84    0.74
  14   1  18    3.95    0.77
  14   1  19   10.51    0.99
  14   1 -19   11.86    1.04
  14   1  19   12.67    1.02
  14  -1  19   11.65    1.01
  14  -1  20    7.68    0.88
  14   1  20    8.13    0.83
  14   1  20    7.83    0.86
  14   1 -20    8.06    0.87
  14   1 -21   54.02    2.40
  14   1  21   54.54    2.35
  14   1  21   53.19    2.39
  14  -1  21   51.88    2.33
  14   1 -22   41.21    1.93
  14   1  22   42.74    1.90
  14  -1  22   40.93    1.89
  14   1  22   39.81    1.93
  14  -1 -22   45.17    1.92
  14   1 -23   11.96    0.84
  14   1  23   12.05    0.88
  14  -1  23   11.52    0.83
  14   1  23   12.16    0.81
  14   1  24    0.98    0.43
  14   1 -24    0.84    0.37
  14   1  25    8.02    0.63
  14  -1  25    9.08    0.63
  15   1   0    0.04    0.79
  15  -1   0    1.67    0.68
  15   1   0    1.70    0.67
  15   1   1    5.03    0.90
  15  -1   1    5.13    0.82
  15   1  -1    4.63    0.85
  15  -1  -1    5.92    0.84
  15   1  -1    5.38    0.84
  15   1   1    5.71    0.89
  15   1   2    8.16    1.05
  15  -1   2    8.73    0.95
  15   1   2    9.89    1.02
  15  -1  -2    8.96    0.99
  15   1  -2    8.46    0.95
  15   1  -2    9.82    1.13
  15  -1   2    9.58    0.93
  15   1  -3   13.04    1.25
  15   1   3   11.91    1.22
  15   1  -3   16.37    1.21
  15  -1   3   13.88    1.13
  15  -1  -3   14.66    1.23
  15   1   3   13.62    1.21
  15   1   4    7.73    1.05
  15   1  -4    6.18    0.97
  15   1  -4    7.85    0.93
  15  -1   4    7.10    0.91
  15  -1  -4    6.26    0.95
  15   1   4    7.68    0.98
  15  -1   5   65.34    3.00
  15   1   5   71.41    3.16
  15  -1   5   63.97    2.92
  15   1   5   70.08    3.08
  15   1  -5   71.69    3.19
  15  -1  -5   63.07    3.05
  15   1   6  445.63   15.43
  15  -1  -6  427.36   15.46
  15   1   6  452.55   15.42
  15  -1   6  414.74   15.30
  15  -1   6  420.83   15.21
  15   1  -6  440.50   15.49
  15   1  -7   71.28    3.22
  15   1   7   70.61    3.12
  15  -1   7   67.55    2.98
  15   1   7   68.03    3.11
  15  -1   7   62.45    2.98
  15  -1  -7   69.76    3.17
  15  -1   8    5.48    0.80
  15   1   8    4.62    0.89
  15  -1  -8    5.20    0.97
  15  -1   8    6.16    0.90
  15   1  -8    6.51    1.06
  15   1   8    6.59    0.93
  15   1   9   13.90    1.24
  15   1  -9   14.61    1.36
  15  -1  -9   14.10    1.31
  15  -1   9   13.08    1.10
  15  -1   9   13.18    1.14
  15   1   9   15.15    1.26
  15   1  10   13.74    1.23
  15   1 -10   11.87    1.31
  15  -1  10   12.87    1.07
  15  -1  10   14.68    1.18
  15  -1 -10   14.20    1.32
  15  -1 -11    7.52    1.07
  15  -1  11    5.87    0.80
  15   1  11    6.51    0.96
  15   1 -11    9.59    1.21
  15  -1  11    7.61    0.94
  15  -1 -12    1.01    0.81
  15   1 -12    0.94    0.94
  15  -1  12    1.02    0.76
  15   1  12    0.97    0.74
  15   1 -13   -1.04    0.93
  15  -1 -13    0.33    0.76
  15  -1  13   -0.84    0.81
  15   1  13    0.42    0.73
  15   1  13    0.04    0.67
  15   1  14    1.92    0.70
  15   1  14    1.45    0.73
  15   1 -14    1.73    0.92
  15  -1  14    1.72    0.78
  15   1  15    5.66    0.85
  15   1  15    7.56    0.94
  15  -1  15    7.17    0.98
  15   1 -15    5.02    1.06
  15   1  16    7.04    0.88
  15   1  16    8.43    0.96
  15   1  17    1.33    0.64
  15   1 -17    2.25    0.68
  15   1  17    2.14    0.70
  15   1 -18    2.13    0.65
  15   1  18    1.15    0.57
  15  -1  18    2.16    0.70
  15   1  18    1.60    0.62
  15   1  19   16.12    1.13
  15   1  19   16.59    1.12
  15  -1  19   17.14    1.14
  15   1 -19   19.15    1.21
  15   1 -20    2.36    0.60
  15   1  20    2.33    0.59
  15   1  20    2.41    0.56
  15  -1  20    1.55    0.59
  15  -1 -21    3.99    0.57
  15   1  21    2.97    0.57
  15   1 -21    3.79    0.61
  15   1  21    3.74    0.55
  15   1  22    0.24    0.41
  15   1 -22    0.27    0.38
  15  -1 -22    0.70    0.40
  15   1  22    0.36    0.40
  15   1 -23    1.56    0.38
  15   1  23    1.48    0.41
  15   1  23    1.35    0.38
  15  -1  23    1.65    0.43
  15  -1  24   13.88    0.77
  16  -1   0    1.44    0.65
  16   1   0    1.20    0.84
  16   1   0    1.85    0.74
  16  -1  -1   68.63    3.09
  16  -1   1   64.05    3.03
  16   1   1   68.76    3.18
  16   1  -1   71.65    3.11
  16   1  -1   74.32    3.25
  16   1   1   69.29    3.10
  16  -1   2   24.39    1.59
  16   1   2   28.56    1.76
  16   1  -2   29.76    1.80
  16  -1   2   29.30    1.60
  16   1   2   26.03    1.63
  16  -1  -2   28.00    1.70
  16   1  -2   28.31    1.64
  16   1   3   14.50    1.24
  16  -1   3   13.55    1.14
  16   1  -3   16.22    1.37
  16  -1   3   12.37    1.06
  16   1   3   12.67    1.17
  16   1  -3   13.62    1.14
  16  -1  -3   14.25    1.22
  16   1  -4   34.63    2.03
  16  -1   4   33.02    1.87
  16   1   4   37.65    2.03
  16   1   4   37.06    1.99
  16  -1   4   37.52    1.88
  16  -1  -4   33.67    1.95
  16   1   5    3.61    0.90
  16  -1  -5    5.77    0.90
  16  -1   5    3.78    0.79
  16   1   5    2.34    0.81
  16  -1   5    3.35    0.72
  16   1  -5    5.82    1.05
  16  -1   6  248.32    9.88
  16   1   6  278.89   10.05
  16  -1  -6  278.50   10.08
  16  -1   6  276.10    9.92
  16   1   6  273.83   10.00
  16   1  -6  292.99   10.18
  16   1   7  279.74    9.90
  16  -1  -7  255.87    9.89
  16   1   7  271.56    9.86
  16  -1   7  261.43    9.75
  16   1  -7  279.00   10.00
  16   1   8  297.56   10.34
  16   1   8  291.13   10.30
  16   1  -8  274.01   10.38
  16  -1  -8  263.78   10.32
  16   1   9   26.32    1.62
  16   1   9   25.38    1.63
  16  -1  -9   25.19    1.70
  16   1  -9   28.22    1.83
  16   1  10   16.28    1.24
  16  -1  10   14.21    1.17
  16   1  10   14.83    1.25
  16  -1 -10   13.21    1.29
  16   1 -10   16.20    1.41
  16  -1 -11   10.69    1.15
  16   1  11   13.83    1.12
  16  -1  11   10.55    1.02
  16   1 -11   10.65    1.23
  16   1  12   15.07    1.19
  16  -1  12   15.63    1.17
  16  -1 -12   13.61    1.27
  16   1 -12   14.41    1.35
  16   1  13    5.35    0.82
  16   1 -13    4.50    1.00
  16  -1  13    3.90    0.77
  16   1  13    4.27    0.83
  16   1 -14    0.04    0.80
  16   1  14    0.75    0.61
  16  -1  14    0.48    0.66
  16   1  14    1.13    0.66
  16   1  15    0.20    0.64
  16  -1  15   -0.03    0.67
  16   1  16    5.66    0.76
  16   1 -16    5.87    0.81
  16   1  16    6.39    0.79
  16   1  17   11.64    0.93
  16   1  17   11.64    0.96
  16   1 -17   13.10    1.00
  16   1  18    0.55    0.47
  16   1 -18    0.40    0.53
  16   1  18    0.61    0.52
  16   1  19   32.52    1.59
  16  -1  19   37.00    1.65
  16   1 -19   32.70    1.63
  16   1  19   31.08    1.57
  16   1  20   20.29    1.15
  16  -1  20   23.00    1.21
  16   1 -20   23.93    1.24
  16  -1 -20   23.44    1.21
  16   1  20   22.93    1.20
  16  -1 -21    2.13    0.43
  16   1 -21    3.21    0.50
  16   1  21    2.90    0.44
  16   1  21    2.56    0.46
  16  -1  21    3.41    0.52
  16  -1  22   10.99    0.70
  17   1   0   93.25    3.93
  17   1   0   94.49    3.84
  17  -1   0   90.36    3.84
  17   1   1   16.12    1.33
  17   1  -1   16.92    1.36
  17   1  -1   18.90    1.25
  17  -1   1   15.46    1.19
  17   1   1   17.27    1.25
  17  -1  -1   15.94    1.23
  17   1  -2    0.33    0.73
  17   1   2    0.82    0.67
  17  -1   2    0.11    0.55
  17   1   2    0.36    0.71
  17   1  -2   -0.28    0.58
  17  -1  -2    0.45    0.65
  17  -1  -3    9.10    0.97
  17   1   3    9.18    0.98
  17   1  -3    8.31    1.01
  17  -1   3    6.92    0.87
  17   1   3    9.99    1.06
  17  -1   3   10.57    0.91
  17   1   4    2.48    0.77
  17  -1  -4    2.46    0.73
  17   1  -4    1.47    0.75
  17  -1   4    2.08    0.62
  17  -1   4    3.41    0.69
  17   1   4    2.34    0.71
  17  -1   5    5.02    0.75
  17   1  -5    4.39    0.90
  17  -1  -5    4.40    0.82
  17   1   5    3.19    0.78
  17   1   5    3.94    0.83
  17   1  -6    1.96    0.83
  17   1   6    1.77    0.69
  17  -1  -6    1.56    0.71
  17   1   6    1.55    0.72
  17  -1   6    2.41    0.67
  17  -1   7   83.69    3.45
  17   1   7   85.78    3.54
  17  -1  -7   78.16    3.55
  17   1  -7   81.28    3.62
  17   1   7   85.78    3.55
  17   1  -8   10.54    1.16
  17   1   8   10.91    1.05
  17  -1   8   12.01    1.01
  17  -1  -8   10.76    1.08
  17   1   8   11.45    1.08
  17   1  -9    3.66    0.90
  17   1   9    3.88    0.75
  17  -1  -9    3.62    0.82
  17   1   9    3.55    0.80
  17  -1   9    3.95    0.74
  17   1  10   46.77    2.23
  17   1  10   46.53    2.19
  17  -1  10   46.73    2.17
  17  -1 -10   38.54    2.18
  17   1 -10   43.41    2.31
  17  -1  11   41.75    1.99
  17   1  11   40.22    2.02
  17   1 -11   37.07    2.11
  17   1 -12    2.02    0.79
  17  -1  12    1.31    0.64
  17   1 -12    2.02    0.66
  17   1  12    1.54    0.59
  17   1 -13    6.63    0.77
  17   1 -13    4.01    0.86
  17   1  13    4.27    0.69
  17  -1  13    4.59    0.71
  17   1  14    0.33    0.62
  17  -1  14    0.31    0.55
  17   1  14    0.11    0.51
  17   1 -14    0.55    0.56
  17   1  15    0.67    0.51
  17   1  15    0.85    0.57
  17  -1  15    1.16    0.55
  17  -1  16    2.73    0.59
  17   1  16    1.84    0.53
  17   1  16    2.36    0.59
  17   1  17    0.82    0.50
  17   1 -17    0.90    0.49
  17   1  17    0.36    0.42
  17  -1  17    1.29    0.52
  17  -1 -18    3.58    0.53
  17   1 -18    3.59    0.54
  17   1  18    4.19    0.56
  17   1  18    3.26    0.50
  17   1  19   13.19    0.81
  17   1 -19   13.61    0.87
  17   1  19   14.30    0.88
  17  -1 -19   16.80    0.89
  17  -1  19   15.62    0.91
  17  -1  20    7.00    0.57
  17   1 -20    6.60    0.55
  18   1   0    0.84    0.69
  18   1  -1    5.17    0.85
  18   1   1    5.79    0.86
  18   1   1    7.18    0.80
  18   1   2   30.16    1.71
  18   1   2   30.58    1.64
  18  -1  -2   28.20    1.62
  18   1  -2   31.35    1.76
  18   1   3    0.39    0.58
  18   1   3   -0.25    0.66
  18   1  -3    0.07    0.65
  18  -1  -3    0.81    0.59
  18   1   4   12.55    1.11
  18   1   4   15.25    1.11
  18   1  -4   16.50    1.03
  18  -1  -4   13.64    1.10
  18   1  -4   13.34    1.18
  18   1  -5   39.44    1.83
  18   1   5   37.30    1.92
  18   1   5   38.35    1.92
  18  -1   5   37.85    1.81
  18  -1  -5   33.36    1.87
  18   1  -5   38.79    2.03
  18   1  -6    6.57    0.75
  18   1   6    6.03    0.83
  18  -1  -6    6.25    0.82
  18   1  -6    6.32    0.93
  18   1   6    7.35    0.86
  18  -1   6    7.95    0.78
  18   1  -7   41.28    2.18
  18   1  -7   48.07    2.09
  18   1   7   43.07    2.10
  18   1   7   44.35    2.12
  18  -1   7   45.35    2.04
  18  -1  -7   40.26    2.11
  18   1   8   14.34    1.09
  18   1  -8   13.56    1.18
  18   1   8   16.50    1.14
  18   1  -8   14.90    1.04
  18  -1   8   14.68    1.02
  18  -1  -8   12.34    1.07
  18   1   9   12.76    1.00
  18  -1   9   13.45    0.97
  18   1  -9   12.79    0.97
  18   1   9   13.79    1.04
  18   1  -9   10.16    1.09
  18   1  10    2.11    0.63
  18   1  10    1.99    0.60
  18  -1  10    1.87    0.56
  18   1 -10    2.20    0.58
  18   1 -10    2.44    0.75
  18   1 -11    0.88    0.52
  18   1 -11    0.32    0.65
  18   1  11    1.20    0.55
  18   1  11    0.72    0.58
  18  -1  11    1.06    0.52
  18   1  12    8.83    0.83
  18   1  12    7.97    0.75
  18   1 -12    9.29    0.79
  18  -1  12    7.67    0.77
  18   1  13    9.03    0.78
  18  -1  13    9.70    0.79
  18   1 -13    9.69    0.80
  18   1 -14    0.33    0.43
  18  -1  14    0.50    0.45
  18   1  14    0.26    0.42
  18  -1  15    5.12    0.60
  18   1  15    4.98    0.61
  18   1 -15    3.72    0.56
  18   1  15    3.56    0.49
  18   1  16    8.71    0.65
  18  -1 -16    9.86    0.71
  18   1  16   10.14    0.74
  18  -1  16    9.50    0.71
  18  -1 -17    7.88    0.61
  18  -1  17    8.68    0.64
  18   1  17    7.89    0.63
  19   1   0    3.73    0.71
  19   1   1   18.61    1.21
  19   1  -1   16.43    1.19
  19   1  -2   49.44    2.29
  19   1   2   48.46    2.24
  19   1  -3    4.23    0.76
  19   1   3    4.02    0.69
  19   1   4    3.88    0.67
  19   1  -4    3.55    0.70
  19   1   4    3.59    0.60
  19   1  -5   16.05    1.19
  19   1   5   18.36    1.09
  19   1   5   16.66    1.11
  19   1  -6    2.28    0.69
  19   1   6    1.86    0.56
  19   1   6    1.98    0.56
  19   1  -6    1.84    0.46
  19   1   7   11.01    0.83
  19  -1   7   10.37    0.76
  19   1  -7    9.28    0.73
  19   1  -7    8.27    0.90
  19   1   7    9.18    0.82
  19  -1   8    0.97    0.46
  19   1  -8    0.73    0.59
  19   1   8    0.64    0.49
  19   1   8    0.34    0.46
  19   1  -8    1.09    0.42
  19   1  -9    0.32    0.54
  19   1  -9    1.59    0.45
  19   1   9    1.08    0.48
  19  -1   9    1.30    0.45
  19   1   9    0.79    0.50
  19   1  10    2.33    0.54
  19  -1  10    2.15    0.46
  19   1 -10    2.38    0.46
  19   1 -10    1.40    0.58
  19   1  10    2.14    0.47
  19  -1  11    0.48    0.40
  19   1 -11    0.58    0.38
  19   1  11    0.59    0.39
  19   1  11    0.46    0.45
  19   1  12    2.17    0.49
  19   1 -12    1.62    0.42
  19   1  12    1.35    0.39
  19  -1  12    1.92    0.44
  19   1 -13    1.17    0.38
  19  -1 -13    1.34    0.38
  19   1  13    1.43    0.43
  19  -1  13    1.64    0.40
  19  -1 -14    4.84    0.49
  19   1  14    5.00    0.53
  20   1   0   17.85    1.10
  20   1  -1    0.55    0.50
  20   1   1    0.88    0.50
  20   1   2   13.38    0.90
  20   1  -2   12.43    0.91
  20   1   3    2.40    0.51
  20   1  -3    1.93    0.53
  20   1  -4    1.75    0.51
  20   1   4    1.32    0.44
  20   1   5    7.00    0.61
  20   1  -5    5.61    0.66
  20   1   6   17.61    0.97
  20   1  -6   16.45    1.03
  20   1  -7    1.74    0.47
   0  -2   0   25.66    1.33
   0  -2   0   23.65    1.12
   0  -2   1    3.20    0.65
   0  -2  -1    3.48    0.38
   0  -2   1    3.09    0.46
   0  -2  -1    3.35    0.49
   0  -2  -2  642.78   22.31
   0  -2  -2  653.00   22.20
   0  -2   2  649.31   22.39
   0  -2   2  671.17   22.65
   0  -2  -3    3.76    0.37
   0  -2   3    2.57    0.65
   0  -2   3    3.50    0.51
   0  -2  -3    3.80    0.36
   0  -2  -4 3569.07  121.76
   0  -2   4 3754.97  122.46
   0  -2  -4 3619.37  121.89
   0  -2   4 3669.10  122.24
   0  -2  -5    1.28    0.31
   0  -2   5    0.47    0.46
   0  -2  -6   17.98    0.97
   0  -2   6   17.42    1.22
   0  -2   7    0.11    0.59
   0  -2   7    0.59    0.48
   0  -2   8  436.19   15.84
   0  -2   8  437.98   15.72
   0  -2   9   -0.06    0.61
   0  -2   9    6.06    0.89
   0  -2  10 1206.20   42.37
   0  -2  10 1239.54   42.46
   0  -2  11    0.34    0.69
   0  -2  11   -0.14    0.73
   0  -2  12  200.08    8.37
   0  -2  12  213.32    8.40
   0  -2  13    4.79    1.03
   0  -2  13    0.08    0.74
   0  -2  14  204.10    8.22
   0  -2  14  191.39    8.27
   0  -2  15    0.19    0.74
   0  -2  15    0.43    0.72
   0  -2  16 2216.41   76.28
   0  -2  16 2208.21   76.58
   0  -2  17   -0.19    0.75
   0   2  17    0.29    0.67
   0   2  18  297.78   11.99
   0  -2  18  303.93   11.97
   0  -2  19    0.15    0.39
   0   2  19    0.11    0.70
   0  -2  19    1.09    0.75
   0   2 -20   77.36    3.24
   0  -2  20   77.88    4.24
   0  -2  20   77.97    3.21
   0   2 -21    0.20    0.48
   0  -2  21    0.40    0.46
   0   2 -22   43.67    2.11
   0  -2  22   41.14    2.02
   0  -2  22   46.14    3.56
   0   2 -23    0.10    0.52
   0  -2  23    0.79    1.09
   0   2 -24  135.11    5.29
   0  -2  24  138.77    7.21
   0   2  25    0.59    0.55
   0   2 -25    0.14    0.54
   0   2  26  117.82    4.64
   0   2  27    0.20    0.53
   0   2  28   56.57    2.57
   0   2  29    0.26    0.51
   0   2  30   26.16    1.46
   0   2  31   -0.20    0.47
   0   2  31   -0.06    0.52
   0   2  32    7.27    0.71
   0   2  32    6.58    0.72
   0   2  33    0.07    0.39
   0   2  33    0.61    0.45
   0   2  34    5.46    0.55
   0  -2 -34    4.96    0.52
   0   2  35    0.11    0.28
   1  -2   0 2471.70   82.15
   1  -2   0 2423.75   82.07
  -1  -2   0 2407.78   81.87
  -1  -2  -1 1581.29   53.51
   1  -2  -1 1568.04   53.74
   1  -2   1 1552.83   53.81
   1  -2  -1 1622.11   53.79
  -1  -2   1 1577.33   53.66
   1  -2   1 1634.50   53.94
  -1  -2   2  648.71   21.75
   1  -2   2  634.85   21.84
   1  -2  -2  652.33   21.73
   1  -2  -2  631.27   21.67
   1  -2   2  665.38   22.01
  -1  -2  -2  619.43   21.45
  -1  -2  -3  977.90   33.43
   1  -2  -3  989.63   33.67
   1  -2   3 1002.98   33.88
   1  -2   3 1005.17   34.02
  -1  -2   3 1006.08   33.80
   1  -2   4  723.82   25.50
   1  -2  -4  747.98   25.13
   1  -2   4  731.17   25.37
  -1  -2   4  724.94   25.31
   1  -2  -5 1275.25   42.36
   1  -2   5 1300.82   42.71
  -1  -2  -5 1218.69   42.09
  -1  -2   5 1253.15   42.63
   1  -2  -6  710.32   24.12
   1  -2   6  699.47   24.47
  -1  -2   6  689.56   24.42
  -1  -2   7  385.10   14.23
   1  -2   7  374.19   14.30
   1  -2  -7  417.21   13.95
   1  -2   7  398.96   14.28
  -1  -2   7  392.88   14.48
   1  -2   8   96.89    4.54
   1  -2  -8  112.76    4.24
   1  -2   8  106.23    4.57
  -1  -2   8  106.84    4.55
  -1  -2   8  104.32    4.71
   1  -2   9   13.11    1.26
   1  -2   9   13.40    1.27
  -1  -2   9   12.19    1.20
  -1  -2   9   11.93    1.30
  -1  -2  10   84.17    3.99
  -1  -2  10   82.97    4.07
   1  -2  10   80.92    3.94
   1  -2  10   88.44    4.00
   1  -2  11    2.70    0.84
  -1  -2  11    2.22    0.86
  -1  -2  11    2.88    0.91
   1  -2  11    2.49    0.85
  -1  -2  12  207.20    8.45
   1  -2  12  210.04    8.41
   1  -2  12  202.33    8.28
  -1  -2  12  206.72    8.47
  -1  -2  13  332.54   12.40
   1   2  13  315.99   11.91
   1  -2  13  312.18   12.16
  -1  -2  13  329.03   12.43
   1  -2  13  308.80   12.27
   1   2  14  171.20    6.98
  -1  -2  14  169.10    7.34
   1  -2  14  167.94    7.17
  -1  -2  14  171.80    7.44
  -1  -2  15   29.85    2.31
   1   2  15   29.64    2.07
  -1  -2  15   28.97    2.37
   1  -2  15   29.55    2.20
   1  -2  16   96.83    4.89
  -1  -2  16  101.52    5.05
   1   2  16  102.77    4.81
  -1  -2  16  106.77    5.35
  -1  -2  17   77.18    4.12
   1  -2  17   72.08    3.94
  -1  -2  17   69.47    4.22
   1  -2  18    0.47    0.66
  -1  -2  18    0.25    0.83
  -1  -2  18    0.30    0.64
  -1   2  18    0.54    0.41
   1  -2  18    0.70    0.42
   1   2  18    0.68    0.37
   1  -2  19    3.32    0.93
  -1  -2  19    3.03    0.99
   1  -2  19    3.64    1.15
  -1  -2  19    0.66    0.87
  -1   2  19    3.63    1.01
   1   2  19    3.83    0.53
  -1   2  19    2.96    0.49
   1  -2  19    3.93    0.59
  -1   2 -20   33.22    1.78
  -1  -2  20   32.02    2.54
  -1   2  20   31.60    2.65
  -1   2  20   35.46    1.66
   1   2 -20   32.96    1.68
   1   2  20   33.44    1.65
   1  -2  20   33.39    1.73
   1  -2  20   35.42    2.94
  -1   2 -21   45.95    2.14
   1  -2  21   43.63    2.09
  -1   2  21   44.22    1.99
   1   2 -21   39.62    2.00
  -1  -2  21   37.51    1.91
   1   2  21   45.32    2.02
   1  -2  21   49.31    3.56
  -1   2 -22   18.07    1.24
   1   2 -22   15.58    1.12
   1   2  22   16.77    1.11
  -1   2  22   18.84    1.13
  -1  -2  22   13.79    1.02
   1  -2  22   20.91    2.35
  -1   2 -23   17.09    1.23
  -1   2  23   18.51    1.15
   1  -2  23   21.43    2.42
   1   2  23   19.81    1.20
   1   2 -23   17.74    1.20
   1   2 -24   30.12    1.66
   1  -2  24   28.41    2.86
  -1   2 -24   32.64    1.77
  -1   2  24   31.12    1.64
   1   2 -25   30.70    1.71
  -1   2 -25   30.36    1.76
  -1   2  25   33.65    1.70
  -1   2  26    8.89    0.88
  -1   2  27    1.38    0.57
  -1   2  28    0.42    0.56
  -1   2  29    0.53    0.51
  -1   2  30    2.31    0.57
   1  -2  30    1.77    0.50
   1   2  30    2.15    0.63
  -1   2  31    7.76    0.76
   1   2  31    7.11    0.81
   1   2  31    7.75    0.78
   1   2  32    2.33    0.53
  -1   2  32    3.11    0.54
   1   2  32    2.64    0.57
  -1   2  32    3.08    0.59
   1   2  33   47.86    2.07
  -1   2  33   47.28    2.10
  -1   2  33   49.38    2.06
   1   2  33   48.75    2.11
  -1  -2 -34   31.02    1.42
   1   2  34   31.72    1.43
   1  -2 -34   29.94    1.36
  -1   2  34   31.83    1.44
   1   2  35   14.76    0.77
  -1   2  35   12.35    0.74
   2  -2   0   79.13    3.15
  -2  -2   0   77.82    2.78
   2  -2   1 9999.00  331.15
   2  -2  -1 9737.27  331.07
   2  -2   1 9751.95  331.12
  -2  -2   1 9820.76  330.84
   2  -2   2 2685.76   90.68
   2  -2  -2 2613.57   90.53
   2  -2   2 2644.78   90.63
  -2  -2   2 2740.30   90.45
  -2  -2   3  886.10   30.05
   2  -2   3  851.21   30.15
   2  -2   3  898.65   30.24
   2  -2  -3  873.12   30.01
  -2  -2   4  258.53    9.13
   2  -2   4  253.94    9.26
   2  -2  -4  244.70    8.72
   2  -2  -4  261.52    9.02
   2  -2   4  255.74    9.22
  -2  -2   5  342.09   12.10
   2  -2   5  349.03   12.17
   2  -2  -5  358.85   11.93
   2   2   5  328.71   11.49
  -2  -2   6   25.83    1.62
   2  -2  -6   28.85    1.45
   2  -2   6   30.19    1.72
   2   2   6   26.64    1.18
   2  -2   7  125.01    5.49
   2   2   7  135.20    5.02
   2  -2  -7  145.40    5.30
  -2  -2   7  140.93    5.60
   2  -2   7  143.93    5.63
   2   2   8    5.31    0.53
   2  -2  -8    4.53    0.66
  -2  -2   8    5.28    0.87
   2  -2   8    4.76    0.83
   2  -2   8    4.91    0.84
   2  -2   9    2.67    0.76
   2  -2  -9    2.93    0.67
   2  -2   9    2.85    0.83
   2   2   9    2.89    0.48
  -2  -2   9    2.64    0.82
   2   2  10  205.55    7.59
  -2  -2  10  205.78    8.22
   2  -2  10  200.23    8.11
   2  -2  10  204.66    8.06
   2   2  11   26.52    1.63
  -2  -2  11   30.74    2.19
  -2  -2  11   32.51    2.28
   2  -2  11   32.74    2.09
   2  -2  12    4.27    0.91
  -2  -2  12    4.51    1.06
   2   2  12    5.10    0.74
  -2  -2  12    5.63    1.11
  -2  -2  13  523.43   19.16
   2   2  13  513.27   18.40
  -2  -2  13  526.46   19.10
   2  -2  13  502.65   18.76
   2  -2  14    4.05    0.94
  -2  -2  14    3.98    1.03
  -2  -2  14    2.67    1.01
  -2  -2  15   76.60    4.27
   2  -2  15   74.54    3.94
  -2  -2  15   78.46    4.18
  -2  -2  16   18.05    1.98
  -2  -2  16   16.70    1.80
   2  -2  16   14.88    1.76
   2  -2  16   17.02    1.67
  -2  -2  17    8.90    1.52
   2  -2  17    8.58    1.43
  -2  -2  17    9.49    1.38
   2   2  18    9.21    0.76
   2  -2  18   10.44    0.88
  -2   2  18    9.43    0.74
  -2  -2  18    9.00    1.52
  -2  -2  18    9.21    1.39
   2  -2  18   10.54    1.55
   2  -2  19   68.53    2.91
  -2   2 -19   69.59    2.95
   2   2  19   64.86    2.74
  -2   2  19   63.29    2.74
   2   2 -19   63.12    2.74
   2  -2  19   72.13    4.28
  -2  -2  19   69.54    4.31
  -2  -2  19   69.57    3.99
   2   2  20    9.84    0.80
  -2   2 -20   10.59    0.96
  -2   2  20    9.02    0.77
   2   2 -20    9.53    0.80
   2  -2  20    9.57    1.63
  -2  -2  20    7.99    1.57
  -2  -2  20    9.49    1.40
   2   2  21  134.85    4.96
  -2   2  21  129.78    4.93
  -2   2  21  125.32    6.55
  -2   2 -21  136.78    5.15
   2   2 -21  118.14    4.91
   2  -2  21  132.91    6.79
  -2  -2  21  130.06    6.78
   2   2  22  140.98    5.21
   2   2 -22  125.71    5.15
  -2   2  22  122.34    6.70
  -2  -2  22  135.66    7.06
  -2   2 -22  145.31    5.40
   2  -2  22  149.61    7.25
  -2   2  22  134.26    5.16
   2   2  23  304.69   10.24
   2   2 -23  263.18   10.15
  -2   2  23  286.07   10.17
  -2   2 -23  283.57   10.35
   2  -2  23  307.36   12.55
  -2  -2  23  259.09   12.14
  -2   2 -24  252.06    9.47
   2   2  24  278.58    9.40
   2  -2  24  254.90   11.44
  -2   2  24  273.53    9.33
  -2   2  25   22.60    1.37
  -2   2 -25   19.32    1.42
   2   2  25   23.32    1.40
  -2   2  26    5.74    0.76
   2   2  26    5.13    0.75
  -2   2  27    0.71    0.54
   2   2  27    0.76    0.61
   2   2  28   36.15    1.99
  -2   2  28   39.01    1.89
   2   2  28   38.18    1.92
   2   2  29    6.95    0.83
  -2   2  29    7.26    0.76
   2   2  29    6.93    0.87
   2  -2  29    6.00    0.70
  -2   2  30    7.19    0.72
   2   2  30    5.98    0.80
  -2   2  31    0.34    0.44
   2   2  31    0.47    0.53
   2   2  32   30.33    1.54
  -2   2  32   30.25    1.48
   2   2  33   17.51    1.01
  -2   2  33   15.25    0.97
   2  -2 -33   16.28    0.90
  -2   2  33   14.83    0.92
  -2  -2 -34    2.55    0.44
  -2   2  34    2.41    0.39
   2   2  34    2.35    0.44
  -2   2  34    2.37    0.42
   2   2  35    6.49    0.51
   3  -2   0 3337.47  109.57
  -3  -2   0 3209.40  109.09
  -3  -2   1 1731.06   60.16
   3  -2  -1 1854.45   60.49
   3  -2   1 1798.51   60.52
   3  -2  -2  860.01   29.58
   3  -2   2  860.64   29.67
   3  -2  -3  160.01    5.95
   3  -2  -3  171.84    6.22
   3  -2   3  172.26    6.35
   3  -2  -4  631.13   21.08
   3  -2   4  596.11   21.23
   3  -2  -4  599.22   20.75
   3  -2   5   26.21    1.65
   3  -2  -5   28.58    1.52
   3  -2   6  113.86    4.85
   3  -2  -6  120.11    4.64
   3  -2   7  144.36    5.75
   3  -2   7  127.99    5.61
   3  -2  -7  145.70    5.44
   3  -2  -8  135.39    5.29
   3  -2   8  131.73    5.52
   3  -2   9  175.66    7.28
   3  -2  -9  191.80    7.12
   3  -2  10   86.78    4.15
   3  -2 -10   93.99    4.01
  -3  -2  12  180.40    7.73
  -3  -2  13  232.88    9.68
  -3  -2  13  234.93    9.64
   3  -2  13  234.57    9.52
  -3  -2  14   30.88    2.53
   3  -2  14   35.91    2.52
  -3  -2  14   33.81    2.54
  -3  -2  15   22.33    2.16
  -3  -2  15   18.37    1.90
   3  -2  15   23.38    2.09
  -3  -2  16    5.25    1.15
   3  -2  16    5.21    1.16
  -3  -2  16    5.84    1.26
  -3   2 -17    3.21    0.62
   3  -2  17    2.33    1.02
  -3   2  17    3.07    0.48
  -3  -2  17    3.04    1.09
   3   2  17    3.01    0.47
  -3  -2  17    1.90    0.90
  -3  -2  18    0.46    0.85
   3   2  18    0.33    0.37
  -3   2 -18    0.80    0.53
  -3  -2  18    1.07    0.99
  -3   2  18    0.23    0.36
   3  -2  18    1.12    0.93
  -3  -2  19   30.07    2.51
  -3   2 -19   29.22    1.66
  -3   2  19   29.35    1.48
   3   2  19   27.80    1.46
   3  -2  19   25.48    2.51
  -3  -2  19   27.42    2.61
  -3  -2  20   83.39    4.71
   3  -2  20   88.39    5.10
  -3   2  20   79.80    3.41
  -3   2 -20   94.45    3.71
   3   2  20   87.45    3.46
  -3  -2  20   79.30    4.99
   3   2  21  114.22    4.43
  -3   2  21  107.80    4.39
   3  -2  21  112.33    6.15
  -3   2 -21  121.66    4.68
  -3  -2  21  110.09    6.16
  -3   2 -22  159.77    5.97
  -3   2  22  138.84    7.41
  -3   2  22  146.09    5.67
   3   2  22  156.89    5.74
   3  -2  22  149.32    7.61
  -3  -2  22  137.37    7.48
  -3   2  23   39.35    3.25
  -3   2 -23   40.89    2.20
   3   2  23   43.71    2.08
  -3   2  23   44.09    2.04
   3  -2  23   39.92    3.40
  -3  -2  23   34.67    3.18
  -3   2 -24   39.40    2.18
   3   2  24   41.25    2.05
  -3   2  24   41.56    1.99
  -3   2 -25    1.92    0.74
   3   2  25    2.14    0.65
  -3   2  25    1.82    0.61
   3   2  26    4.15    0.79
   3   2  26    4.21    0.74
  -3   2  26    5.36    0.72
   3  -2  26    3.53    0.70
   3   2  27   29.04    1.61
   3   2  27   26.69    1.64
  -3   2  27   26.96    1.50
  -3   2  28   18.30    1.17
   3   2  28   17.05    1.29
   3   2  28   18.09    1.21
   3   2  29   87.69    3.80
  -3   2  29   93.19    3.69
   3   2  29   94.54    3.77
  -3   2  30   18.69    1.15
   3   2  30   19.29    1.23
   3   2  30   18.73    1.28
   3   2  31    4.21    0.66
  -3   2  31    5.37    0.61
   3   2  31    5.06    0.71
   3   2  32   11.84    0.88
  -3   2  32   11.38    0.80
  -3   2  33    1.89    0.39
  -3  -2 -33    1.85    0.48
   3   2  33    2.00    0.47
  -3  -2 -34    3.20    0.47
  -3   2  34    3.58    0.39
  -3   2  34    3.18    0.44
   3   2  34    3.03    0.45
   4  -2   0  539.72   18.94
   4  -2  -1   19.19    1.27
   4  -2   1   19.70    1.32
   4  -2  -1   19.50    1.14
   4  -2  -2   28.77    1.43
   4  -2   2   29.05    1.68
   4  -2  -2   28.47    1.60
   4  -2  -3   26.50    1.51
   4  -2   3   26.41    1.61
   4  -2  -3   24.92    1.28
   4  -2  -4  223.89    7.93
   4  -2  -4  212.80    7.57
   4  -2   4  198.47    8.00
   4  -2  -5    3.34    0.62
   4  -2  -6  293.85   10.69
   4  -2  -7  261.06    9.64
   4  -2  -8  303.74   11.13
   4  -2  -9 1469.03   50.45
   4  -2 -10 1092.27   37.47
   4  -2  10 1064.33   37.83
   4  -2  11   92.52    4.52
   4  -2 -11   91.59    4.19
   4  -2  12  159.91    6.97
   4  -2  13  281.39   11.22
  -4  -2  14  233.84   10.15
   4  -2  14  253.39   10.16
  -4  -2  15    2.42    0.97
   4  -2  15    2.97    1.04
  -4  -2  15    1.88    1.00
  -4  -2  16    9.60    1.51
  -4   2 -16   10.41    0.88
  -4  -2  16    8.87    1.42
   4  -2  16    7.59    1.36
  -4   2  17   70.54    3.00
  -4  -2  17   69.94    4.41
   4   2  17   73.30    2.98
  -4   2 -17   82.10    3.24
  -4  -2  17   68.58    4.23
   4  -2  17   79.98    4.47
   4  -2  18    8.72    1.52
   4   2  18    9.55    0.76
  -4   2  18    8.12    0.74
  -4  -2  18    8.58    1.56
  -4  -2  18    7.29    1.40
  -4   2  19    8.64    0.76
  -4  -2  19    9.87    1.70
   4  -2  19    6.90    1.46
   4   2  19    7.96    0.75
  -4  -2  19    5.46    1.23
  -4  -2  20  209.75    9.28
  -4   2  20  198.51    7.62
  -4  -2  20  205.56    9.64
   4  -2  20  222.46    9.70
   4   2  20  219.97    7.69
   4   2  21   67.10    2.90
  -4   2  21   67.78    2.87
   4  -2  21   72.70    4.56
  -4  -2  21   65.96    4.49
   4   2  22   72.37    3.05
   4   2  22   71.87    3.15
  -4   2  22   69.39    2.95
  -4  -2  22   60.30    4.43
   4  -2  22   69.77    4.60
  -4   2  23   66.26    4.48
   4   2  23   65.44    2.87
   4   2  23   66.60    3.01
  -4   2  23   64.48    2.81
   4  -2  23   65.79    4.43
  -4  -2  23   63.60    4.42
   4   2  24   64.97    2.93
   4   2  24   59.23    2.78
  -4   2  24   64.97    2.75
   4   2  25    8.85    0.90
  -4   2  25    8.28    0.84
   4   2  25    9.20    1.01
  -4   2  26   25.49    1.42
   4   2  26   23.86    1.46
   4   2  26   24.31    1.58
  -4   2  27   11.84    0.96
   4   2  27   12.57    1.06
   4   2  27   11.71    1.12
   4   2  28    6.06    0.81
   4   2  28    6.13    0.88
  -4   2  28    6.85    0.74
   4   2  29    6.75    0.84
   4   2  29    4.67    0.78
  -4   2  29    6.09    0.68
   4   2  30   11.84    0.99
  -4   2  30   11.17    0.83
   4   2  30    9.83    0.90
  -4   2  31    2.04    0.46
   4   2  31    1.78    0.56
  -4   2  32    5.30    0.54
  -4   2  33    6.33    0.52
  -4   2  34    0.62    0.33
   5  -2   0    1.18    0.58
   5  -2   0    2.01    0.54
   5  -2  -1   65.99    2.78
   5  -2   1   64.59    2.84
   5  -2   1   59.77    2.97
   5  -2  -1   68.17    3.03
   5  -2  -2   35.83    1.98
   5  -2  -2   37.22    1.81
   5  -2  -3  206.88    7.69
   5  -2  -3  219.62    8.01
   5  -2  -4  179.69    6.91
   5  -2  -5   66.66    3.07
   5  -2  -6   83.62    3.69
   5  -2  -7  114.67    4.73
   5  -2   7  109.08    4.93
   5  -2   8  292.92   11.19
   5  -2  -8  292.23   10.86
   5  -2  -9  249.78    9.69
   5  -2   9  264.88   10.07
   5  -2 -10   57.51    2.99
   5  -2  10   57.00    3.23
   5  -2 -11   25.42    1.89
   5  -2  11   28.69    2.16
   5  -2  12   15.16    1.62
   5  -2 -12   13.85    1.42
   5  -2  13   16.39    1.75
   5  -2  14   76.82    4.25
   5  -2  15   36.24    2.74
  -5   2 -16   35.50    1.76
  -5  -2  16   31.73    2.77
   5   2  16   32.97    1.70
  -5   2  16   34.55    1.64
   5   2  16   32.34    1.57
   5  -2  16   37.59    2.80
  -5  -2  16   31.85    2.72
  -5  -2  17   10.62    1.75
  -5   2 -17   12.53    1.00
   5  -2  17   11.58    1.67
   5   2  17   12.15    0.86
  -5  -2  17    9.96    1.58
   5   2  17   12.48    0.98
   5   2 -17   11.21    0.88
  -5   2  17   12.24    0.89
  -5   2  18   29.91    1.54
  -5  -2  18   28.14    2.69
   5   2  18   30.34    1.65
  -5   2 -18   32.08    1.73
  -5  -2  18   31.90    2.69
   5   2  18   28.89    1.52
   5  -2  18   27.44    2.55
  -5  -2  19   24.75    2.60
  -5   2 -19   29.20    1.72
   5   2  19   29.41    1.65
   5   2  19   29.01    1.53
  -5   2  19   28.32    1.49
  -5  -2  19   31.14    2.64
   5  -2  19   28.53    2.64
   5   2  20   33.84    1.86
  -5   2 -20   33.56    1.91
   5   2  20   34.72    1.74
  -5  -2  20   30.42    2.93
  -5   2  20   33.91    1.71
   5  -2  20   33.87    2.97
  -5   2 -21    2.31    0.78
  -5   2  21    1.64    0.54
   5   2  21    2.38    0.74
   5   2  21    2.03    0.58
   5  -2  21    2.97    1.21
  -5  -2  21    1.78    1.15
  -5   2 -22   70.66    3.19
   5   2  22   70.18    3.01
  -5   2  22   68.59    2.94
   5   2  22   66.78    3.08
   5  -2  22   70.51    4.54
  -5  -2  22   72.16    4.71
   5   2  23   18.08    1.32
  -5   2  23   18.35    1.17
   5   2  23   16.57    1.21
   5   2  24   21.07    1.36
   5   2  24   23.63    1.51
   5   2  25   46.46    2.36
   5   2  25   46.26    2.26
  -5   2  25   45.54    2.14
  -5   2  26  152.10    5.72
   5   2  26  148.17    5.92
   5   2  26  155.25    5.86
   5   2  27   28.69    1.63
   5   2  27   29.33    1.74
  -5   2  27   29.98    1.55
   5   2  28   20.98    1.39
  -5   2  28   20.59    1.21
   5   2  28   19.85    1.31
  -5   2  29    6.40    0.66
   5   2  29    6.29    0.74
  -5   2  30   12.59    0.85
  -5   2  31    2.56    0.43
  -5  -2 -32    8.38    0.72
  -5   2  32    7.92    0.58
  -5  -2 -33    3.44    0.49
   6  -2   0    0.04    0.57
   6  -2   1  120.75    4.82
   6  -2  -1  118.88    4.75
   6  -2   2   86.03    3.73
   6  -2  -2   88.89    3.65
   6  -2   3  131.04    5.26
   6  -2  -3  131.06    5.40
   6  -2   4 1297.24   45.20
   6  -2  -4 1317.73   45.09
   6  -2   4 1308.33   44.93
   6  -2   5  271.00   10.51
   6  -2  -5  281.72   10.38
   6  -2  -6  454.65   16.92
   6  -2   6  491.28   17.20
   6  -2  -7  772.58   27.12
   6  -2   7  771.30   27.37
   6  -2  -8  170.84    6.89
   6  -2   8  171.58    7.15
   6  -2  -9  120.48    5.34
   6  -2   9  131.39    5.69
   6  -2 -10  379.13   14.23
   6  -2  10  388.44   14.55
   6  -2 -11   60.02    3.27
   6  -2  11   61.47    3.51
   6  -2  12   35.77    2.60
   6  -2 -12   35.94    2.41
   6  -2  13   33.52    2.55
   6   2  14    4.99    0.61
   6  -2  14    5.21    1.26
   6   2  15    9.67    0.85
   6   2 -15    8.53    0.92
   6  -2  15   10.70    1.56
  -6   2  15   10.36    0.82
   6  -2  16  107.60    5.64
   6   2  16  111.69    4.28
   6   2  16  105.65    4.12
  -6   2 -16  105.81    4.24
   6   2 -16  104.59    4.22
  -6   2  16  109.09    4.17
   6   2  17   35.16    1.72
  -6  -2  17   32.73    2.90
   6   2  17   35.44    1.84
  -6   2 -17   39.21    1.89
   6   2 -17   35.17    1.80
   6  -2  17   39.74    3.02
  -6   2  17   35.96    1.75
  -6  -2  17   36.91    2.99
  -6  -2  18   37.61    3.17
   6   2  18   40.64    1.99
  -6   2 -18   35.80    1.94
   6   2 -18   36.12    1.86
  -6   2  18   38.85    1.84
   6   2  18   38.54    1.84
  -6  -2  18   35.91    2.99
   6  -2  18   40.99    3.17
  -6   2 -19    2.99    0.74
  -6  -2  19    2.63    1.19
   6   2  19    3.26    0.70
   6  -2  19    3.22    1.22
   6   2  19    3.17    0.57
  -6  -2  19    2.48    1.07
  -6   2  19    3.02    0.57
  -6  -2  20   42.34    3.47
   6   2  20   46.18    2.13
   6  -2  20   44.15    3.40
   6   2  20   43.80    2.24
  -6   2  20   43.08    2.04
   6   2  21   16.05    1.25
  -6  -2  21   13.03    2.02
  -6   2  21   15.65    1.06
   6   2  21   15.19    1.11
   6  -2  21   16.75    2.12
  -6  -2  22   25.18    2.73
  -6   2  22   28.58    1.52
   6  -2  22   28.44    2.73
   6   2  22   29.81    1.74
   6   2  22   28.46    1.60
   6   2  23  116.62    4.59
  -6   2  23  110.37    4.45
   6   2  23  118.50    4.71
   6   2  24  133.12    5.38
   6   2  24  139.74    5.30
  -6   2  24  133.95    5.15
   6   2  25   50.76    2.58
   6   2  25   54.49    2.50
  -6   2  25   53.23    2.36
   6   2  26  379.66   13.75
  -6   2  26  392.85   13.61
  -6   2  27    8.30    0.76
   6   2  27    8.41    0.89
  -6   2  28   19.79    1.14
  -6   2  29    2.51    0.48
  -6   2  30    1.96    0.41
  -6  -2 -31    7.43    0.70
  -6   2  31    7.06    0.55
  -6  -2 -32    5.56    0.59
   7  -2   0   17.57    1.34
   7  -2  -1   82.76    3.57
   7  -2   1   79.87    3.87
   7  -2   1   79.85    3.60
   7  -2   2    4.99    0.99
   7  -2   2    5.52    0.90
   7  -2   3  215.06    8.19
   7  -2   3  214.24    8.49
   7  -2   4  412.89   15.06
   7  -2   4  423.49   15.38
   7  -2   5  189.89    7.72
   7  -2  -6   49.75    2.75
   7  -2   6   50.38    2.90
   7  -2  -7    6.43    1.01
   7  -2   7    8.93    1.26
   7  -2   7    7.53    1.10
   7  -2   8   91.42    4.18
   7  -2  -8   90.45    4.29
   7  -2   8   95.61    4.55
   7  -2  -9   17.05    1.56
   7  -2   9   15.76    1.47
   7  -2   9   20.92    1.82
   7  -2  10   15.74    1.67
   7  -2  10   16.84    1.51
   7  -2 -10   15.89    1.56
   7  -2 -11   30.16    2.29
   7  -2  11   35.23    2.52
   7  -2 -12  178.60    7.67
   7  -2  12  183.27    7.94
   7  -2 -13   10.74    1.42
   7  -2  13    8.80    1.39
   7   2  13    9.86    0.81
   7   2 -13   10.72    0.95
   7  -2  14  121.36    5.68
   7   2  14  132.43    4.97
   7  -2  14  139.29    6.40
  -7   2  14  127.30    4.88
   7   2 -14  126.49    5.08
   7   2  15   51.76    2.27
   7  -2  15   44.59    2.85
  -7   2  15   50.47    2.17
   7   2 -15   41.68    2.31
   7  -2  15   48.41    3.32
   7   2 -16    9.00    0.97
  -7   2  16    7.39    0.74
   7   2  16    8.69    0.87
   7   2 -16    7.89    0.81
   7  -2  16    8.13    1.46
   7  -2  16    7.24    1.23
   7  -2  17   37.24    2.98
   7  -2  17   34.70    2.50
   7   2  17   38.90    1.94
   7   2 -17   37.97    1.90
   7   2  17   36.22    1.78
  -7   2  17   37.42    1.80
   7  -2  18   10.10    1.64
   7   2  18    9.13    0.82
  -7   2  18   10.92    0.86
   7   2 -18    9.18    0.90
   7  -2  18    7.31    1.27
   7   2  18    8.43    0.92
  -7  -2  18   10.68    1.73
  -7  -2  18    8.65    1.64
   7  -2  19    0.35    0.84
   7   2  19   -0.44    0.46
   7   2  19   -0.08    0.58
   7  -2  19   -0.28    0.93
  -7   2  19    0.09    0.47
  -7  -2  19    0.29    0.88
   7   2 -19    0.72    0.57
  -7  -2  19    0.47    0.95
  -7   2  20    3.39    0.61
   7  -2  20    1.30    1.02
   7   2  20    2.44    0.59
   7   2  20    3.16    0.77
   7   2 -20    3.11    0.62
  -7  -2  20    2.46    1.20
   7   2  21   12.19    1.00
   7   2  21   13.17    1.18
  -7   2  21   11.61    0.91
   7  -2  21   13.03    1.93
  -7  -2  21   13.43    2.01
  -7   2  22    7.70    0.76
   7   2  22    6.99    0.82
   7   2  23   92.78    3.94
  -7   2  23  100.27    3.85
  -7   2  24  152.40    5.62
   7   2  24  146.00    5.74
  -7   2  25   92.57    3.66
  -7   2  26   10.72    0.82
  -7   2  27   22.55    1.20
  -7   2  28   74.64    2.95
  -7  -2 -30    3.91    0.60
  -7  -2 -31    8.11    0.69
   7   2  33    9.68    0.62
   8  -2   0    1.35    0.76
   8  -2   0    1.03    0.65
   8  -2   1   15.54    1.35
   8  -2  -1   16.38    1.53
   8  -2   1   15.01    1.51
   8  -2  -2    0.14    0.68
   8  -2   2    1.34    0.74
   8  -2   2    1.11    0.75
   8  -2   3   42.18    2.57
   8  -2   3   38.00    2.24
   8  -2   4  164.03    6.83
   8  -2   4  183.94    7.31
   8  -2   5  204.29    8.50
   8  -2   5  244.97    9.04
   8  -2   6  169.16    7.19
   8  -2   7   63.23    3.38
   8  -2   7   75.66    3.82
   8  -2   8   23.34    1.83
   8  -2   8   25.47    2.07
   8  -2   9   34.25    2.23
   8  -2  -9   33.86    2.35
   8  -2   9   34.25    2.49
   8  -2 -10   71.76    3.76
   8  -2  10   70.35    3.90
   8  -2  10   64.89    3.50
   8  -2 -11  116.40    5.54
   8   2  11  113.63    4.51
   8  -2  11  124.44    5.79
   8  -2  11  118.79    5.32
   8   2 -11  118.22    4.59
   8  -2  12  126.32    6.09
   8  -2 -12  129.57    5.94
   8  -2  12  121.05    5.57
   8   2  12  125.82    4.82
   8   2  12  121.25    4.71
   8   2 -12  129.08    4.91
   8  -2 -13   77.94    4.34
   8  -2  13   78.05    4.06
   8   2  13   79.53    3.34
  -8   2  13   85.62    3.30
   8  -2  13   85.41    4.62
   8   2  13   76.41    3.23
   8   2 -13   85.15    3.49
   8  -2  14   35.84    2.47
   8   2  14   34.50    1.76
  -8   2  14   33.75    1.66
   8  -2  14   33.75    2.71
   8   2  14   30.28    1.60
   8   2 -14   33.96    1.88
   8  -2  15   27.68    2.47
   8   2  15   23.96    1.45
   8  -2  15   23.04    2.02
  -8   2  15   26.75    1.41
   8   2  15   25.81    1.39
   8   2 -15   25.07    1.64
   8  -2  16   81.37    4.20
   8   2  16   81.31    3.39
  -8   2  16   77.23    3.24
   8  -2  16   87.25    4.83
   8   2 -16   78.59    3.55
   8  -2  17  200.94    8.51
  -8   2  17  204.46    7.47
   8   2  17  200.63    7.64
   8  -2  17  207.12    9.26
   8   2 -17  208.88    7.62
  -8  -2  18  224.08   10.83
   8  -2  18  231.60    9.92
   8   2  18  252.09    9.14
   8   2 -18  252.39    9.11
   8  -2  18  261.58   10.92
  -8   2  18  249.51    8.94
   8  -2  19  124.65    5.82
  -8  -2  19  118.26    6.68
   8   2  19  121.78    4.89
  -8   2  19  129.03    4.85
   8  -2  19  127.17    6.56
   8   2 -19  131.37    5.03
   8  -2  20    5.04    1.33
   8   2 -20    4.30    0.75
  -8   2  20    5.01    0.64
   8   2  20    4.48    0.65
  -8  -2  20    3.81    1.34
   8   2 -21    9.30    0.94
   8   2  21    7.47    0.82
  -8   2  21    7.99    0.76
  -8   2  22   15.31    1.01
  -8   2  23   26.52    1.40
  -8   2  24   59.14    2.49
  -8   2  25   11.81    0.83
   8  -2  27    7.31    0.67
  -8  -2 -28   29.37    1.52
  -8  -2 -29    9.68    0.77
  -8  -2 -30    0.62    0.42
   8   2  30    1.56    0.53
   8   2  31    5.38    0.58
   8   2  32    2.99    0.43
   9  -2   0   50.91    3.02
   9  -2  -1   93.49    4.76
   9  -2   1  112.91    5.00
   9  -2  -2   42.94    2.74
   9  -2   2   46.68    2.85
   9  -2   2   44.46    2.56
   9  -2   3   12.31    1.35
   9  -2   3   13.98    1.55
   9  -2  -3   13.64    1.46
   9  -2  -4    7.96    1.18
   9  -2   4    7.52    1.13
   9  -2   4    6.82    1.18
   9  -2  -5   90.54    4.26
   9  -2   5   85.54    4.30
   9  -2   6   35.27    2.51
   9  -2   7   32.56    2.34
   9  -2   7   24.33    1.95
   9   2   8   10.65    0.86
   9  -2   8   11.08    1.35
   9  -2   8   10.42    1.41
   9  -2   9  111.75    5.13
   9   2   9  116.58    4.41
   9  -2   9  121.71    5.61
   9   2   9  103.65    4.26
   9   2  -9  116.30    4.41
   9   2  10    8.93    0.82
   9  -2  10    9.02    1.38
   9   2  10    8.51    0.78
   9  -2  10    7.95    1.22
   9   2 -10    9.07    0.84
   9  -2  11   55.55    3.18
   9   2  11   58.69    2.52
   9  -2 -11   56.81    3.46
   9  -2 -11   52.11    2.47
   9   2  11   53.48    2.40
   9  -2  11   54.32    3.48
   9   2 -11   56.98    2.54
   9  -2 -12   99.98    4.98
   9   2  12   92.93    3.75
   9  -2  12   96.73    4.58
   9  -2  12   97.18    5.02
   9   2  12   85.45    3.61
   9  -2 -12   86.52    3.73
   9   2 -12   95.71    3.85
   9  -2  13   20.11    1.85
   9  -2 -13   19.00    2.03
   9   2  13   22.57    1.35
   9   2  13   20.63    1.24
   9  -2  13   21.10    2.12
   9   2 -13   18.22    1.36
   9   2  14   14.68    1.10
   9  -2  14   12.30    1.71
   9  -2  14   12.95    1.56
   9   2  14   11.64    0.98
   9   2 -14   13.35    1.19
   9  -2  15    1.08    0.90
   9   2  15    0.80    0.63
   9   2  15    0.33    0.56
   9   2 -15    0.83    0.77
   9  -2  15    2.04    1.00
   9  -2  16  161.29    7.74
   9   2  16  159.74    6.10
   9  -2  16  162.99    7.17
   9   2 -16  169.66    6.47
   9  -2  17  185.23    8.41
   9   2 -17  188.58    6.79
   9   2  17  169.92    6.57
   9  -2  17  172.04    7.61
   9   2 -18   25.58    1.57
   9  -2  18   24.97    2.48
   9  -2  18   25.43    2.13
  -9  -2  19  218.11   10.69
   9  -2  19  244.42   10.64
   9   2 -19  248.36    8.97
   9   2 -20   36.93    2.00
   9   2 -21   45.68    2.28
   9   2 -22   29.84    1.69
  -9  -2 -26   11.41    0.87
   9  -2  26   10.56    0.80
  -9  -2 -27    0.68    0.46
   9  -2  27    0.90    0.44
   9   2  27    0.56    0.56
   9   2  28    4.53    0.69
  -9  -2 -28    4.49    0.58
   9   2  29   19.87    1.16
   9   2  30    1.36    0.42
   9   2  31   29.64    1.36
  10  -2   0  555.62   20.50
  10  -2   1  441.32   16.55
  10  -2  -1  433.44   16.46
  10  -2  -2  323.42   11.81
  10   2   2  305.81   10.58
  10   2  -2  286.15   10.54
  10  -2   2  328.79   11.89
  10   2   2  279.15   10.48
  10   2  -3   52.89    2.37
  10   2   3   53.99    2.40
 -10   2   3   55.49    2.39
  10  -2   3   57.49    3.37
  10   2   3   48.77    2.31
  10  -2  -4   -0.18    0.74
  10  -2   4    0.29    0.68
  10  -2   4    0.39    0.76
  10   2   4    0.31    0.44
  10   2  -4    0.09    0.44
 -10   2   4   -0.08    0.59
  10   2  -5   21.27    1.30
  10   2   5   24.00    1.30
  10   2   5   25.76    1.38
  10  -2   5   25.21    2.13
 -10   2   5   19.29    1.30
  10  -2  -5   18.46    1.85
  10  -2   5   21.52    1.83
  10   2  -6   16.83    1.13
  10   2   6   18.47    1.16
  10  -2  -6   18.96    1.80
  10  -2   6   18.31    1.83
  10   2  -6   14.99    1.07
  10   2  -7   17.57    1.16
  10   2   7   18.63    1.18
  10  -2  -7   18.74    1.83
  10  -2   7   20.75    1.94
  10  -2   7   13.95    1.52
  10   2  -8   12.48    0.99
  10   2   8   13.08    1.01
  10  -2  -8    9.88    1.44
  10  -2   8   13.37    1.50
  10   2   8   12.01    0.95
  10  -2   8   14.80    1.70
  10   2   9   40.30    1.99
  10  -2  -9   34.97    2.70
  10  -2   9   42.72    2.97
  10   2   9   39.42    1.89
  10  -2   9   37.29    2.56
  10   2  -9   40.27    1.99
  10   2  10   92.15    3.77
  10  -2 -10   93.09    3.79
  10  -2  10   98.84    5.03
  10  -2  10   84.09    4.47
  10   2  10   88.68    3.68
  10   2 -10   94.68    3.82
  10   2 -11    6.50    0.84
  10   2  11    4.83    0.75
  10  -2  11    7.64    1.41
  10  -2  11    6.03    1.14
  10   2  11    4.78    0.71
  10  -2 -11    4.49    0.74
  10   2  12   11.74    1.03
  10   2  12   11.21    0.98
  10  -2  12   11.33    1.47
  10  -2  12   11.57    1.62
  10  -2 -12   10.75    1.01
  10   2 -12   11.27    1.08
  10   2 -13   38.52    2.05
  10  -2  13   32.14    2.75
  10   2  13   34.78    1.83
  10  -2  13   34.11    2.53
  10  -2  14   13.72    1.62
  10  -2  14   17.11    1.98
  10   2  14   13.00    1.09
  10   2 -14   18.35    1.43
  10   2 -15    8.89    1.13
  10  -2  15    6.51    1.27
  10  -2  15    9.86    1.60
  10   2  15    7.36    0.88
  10  -2  16    3.04    1.18
  10  -2  16    0.95    0.91
  10   2 -16    1.50    0.79
  10   2  16    1.39    0.66
  10   2 -17    0.92    0.84
  10  -2  17   -1.08    0.97
  10   2 -17    0.52    0.58
  10  -2  17    0.10    0.82
  10   2  17   -0.03    0.61
  10   2 -18   28.07    1.68
  10   2 -19   55.50    2.68
  10   2 -20  138.56    5.47
  10   2 -21   34.37    1.91
  10   2 -22    0.30    0.59
  10   2 -23    1.15    0.56
  10   2  24    1.41    0.68
  10  -2  24    2.25    0.62
  10   2  25    1.57    0.65
  10  -2  25    2.30    0.58
  10   2  26   14.37    1.09
  10  -2  26   13.80    0.90
  10   2  27   21.69    1.27
  10  -2  27   20.35    1.07
  10   2  28   21.55    1.23
  10   2  29    1.27    0.44
  10   2  30    9.04    0.66
 -11   2   0    1.63    0.75
  11   2   0    2.37    0.62
  11  -2   0    2.54    0.99
  11   2   0    2.88    0.60
  11   2   1   24.11    1.42
  11  -2  -1   28.56    2.30
  11  -2   1   26.90    2.25
 -11   2   1   20.65    1.46
 -11   2  -1   24.50    1.49
  11   2  -1   25.64    1.47
  11   2  -1   24.17    1.41
  11   2   1   23.92    1.42
  11   2  -2  110.11    4.36
  11   2   2  109.06    4.36
  11  -2   2  112.25    5.52
  11  -2  -2  113.09    5.51
 -11   2  -2  113.31    4.40
  11   2  -2  108.90    4.33
  11   2   2  104.95    4.29
  11  -2  -3  382.57   14.39
  11   2  -3  375.91   13.07
  11  -2   3  379.65   14.44
  11   2   3  370.87   13.05
 -11   2  -3  345.57   12.95
  11   2  -3  377.11   13.04
  11  -2   3  371.36   12.78
  11   2   3  354.23   12.97
  11   2  -4   26.78    1.55
  11   2   4   27.11    1.57
  11  -2  -4   29.70    2.39
  11  -2   4   31.42    2.47
  11   2  -4   26.99    1.55
  11   2   5    0.57    0.51
  11  -2  -5    0.41    0.79
  11   2  -5    1.14    0.53
  11   2  -5    0.67    0.56
  11  -2   5    0.65    0.78
  11   2  -6   26.65    1.55
  11   2   6   27.09    1.57
  11  -2  -6   27.34    2.32
  11   2  -6   27.55    1.55
  11  -2   6   26.66    2.36
  11   2   6   28.52    1.56
  11   2  -7   62.56    2.83
  11   2   7   64.38    2.86
  11  -2  -7   62.89    3.79
  11  -2   7   64.97    3.91
  11   2   7   65.20    2.84
  11   2  -8   13.26    1.07
  11   2   8   13.11    1.06
  11  -2  -8   11.12    1.57
  11  -2   8   10.89    1.46
  11  -2   8   13.64    1.73
  11  -2  -9    9.00    1.46
  11  -2   9    9.70    1.42
  11  -2   9    7.87    1.38
  11   2  -9    8.61    0.94
  11  -2 -10   55.92    3.66
  11  -2  10   56.42    3.69
  11  -2  10   60.93    3.44
  11  -2 -10   55.92    2.67
  11   2 -10   54.15    2.64
  11  -2 -11    6.82    1.40
  11  -2 -11    4.35    0.84
  11  -2  11    5.20    1.18
  11  -2  11    5.11    1.28
  11   2 -11    5.25    0.85
  11  -2 -12   31.41    2.71
  11  -2  12   28.70    2.57
  11  -2  12   28.02    2.32
  11  -2 -12   29.03    1.78
  11   2 -12   29.98    1.83
  11  -2  13   56.30    3.76
  11  -2  13   54.66    3.40
  11   2 -13   59.42    2.85
  11  -2  14    9.06    1.43
  11  -2  14   11.41    1.68
  11   2 -14   10.79    1.22
  11  -2  15  103.78    5.27
  11  -2  15  109.88    5.75
  11   2 -15  109.12    4.60
  11   2 -16   14.01    1.38
  11   2 -17    2.13    0.99
  11   2 -17    2.67    0.75
  11   2 -18   22.45    1.50
  11   2  18   22.63    1.42
  11   2  19   28.60    1.61
  11   2 -19   28.65    1.72
  11   2 -20    3.55    0.78
  11   2  20    6.42    0.78
  11  -2  21    3.81    0.78
  11   2  21    4.15    0.88
  11   2 -21    3.49    0.75
  11   2  22   15.82    1.25
  11   2 -22   14.84    1.15
  11  -2  22   15.62    1.09
  11   2  23   11.71    1.05
  11  -2  23   11.28    0.90
  11   2 -23    8.52    0.88
  11   2 -24    5.83    0.69
  11   2  24    6.39    0.84
  11  -2  24    6.96    0.73
  11   2  25    1.55    0.61
  11  -2  25    1.07    0.51
  11  -2  26    0.71    0.45
  11   2  26    0.70    0.54
  11   2  27    2.00    0.54
  11  -2  27    2.06    0.43
  11   2  28    5.32    0.59
  11   2  29    0.13    0.35
  12   2   0  261.60    9.42
  12  -2   0  261.75   10.78
  12   2   0  251.49    9.36
  12   2  -1   61.55    2.88
  12   2   1   64.25    2.89
  12  -2   1   68.59    4.04
  12  -2  -1   70.29    4.07
  12   2   1   63.95    2.86
  12   2  -1   64.48    2.87
  12   2  -2   32.20    1.80
  12   2   2   32.54    1.80
  12  -2   2   33.02    2.66
  12   2   2   32.99    1.77
  12  -2  -2   32.50    2.65
  12   2  -2   32.58    1.78
  12   2  -3  111.88    4.54
  12   2   3  116.33    4.54
  12  -2  -3  117.67    5.77
  12  -2   3  109.25    5.68
  12  -2   3  107.94    4.23
  12   2  -3  114.66    4.51
  12   2   3  110.43    4.46
  12   2  -4   56.35    2.58
  12   2   4   55.57    2.60
  12   2   4   54.88    2.53
  12  -2   4   53.31    2.31
  12  -2  -4   55.29    3.55
  12  -2   4   59.37    3.65
  12   2  -4   51.96    2.51
  12   2  -5   97.93    4.06
  12   2   5   99.19    4.10
  12  -2  -5  103.59    5.28
  12  -2   5  102.64    5.30
  12  -2   5   97.17    3.82
  12   2  -5   98.28    4.04
  12   2  -6  186.54    7.00
  12  -2  -6  180.55    8.25
  12  -2   6  194.61    8.42
  12  -2   6  183.72    6.73
  12   2  -6  182.85    6.93
  12   2  -7  149.15    5.76
  12  -2  -7  147.70    7.02
  12   2   7  146.36    5.70
  12  -2   7  147.33    7.02
  12  -2   7  146.06    5.48
  12   2  -8  146.36    5.69
  12  -2  -8  139.08    6.89
  12  -2   8  144.13    6.95
  12   2   8  145.05    5.64
  12  -2   9   67.98    4.11
  12  -2  -9   59.84    3.96
  12   2   9   66.01    2.97
  12   2  -9   64.87    3.01
  12  -2 -10    4.64    1.31
  12  -2 -10    3.77    0.84
  12  -2  10    4.10    1.11
  12   2 -10    4.09    0.86
  12   2  10    3.65    0.83
  12  -2 -11    3.43    1.20
  12   2 -11    4.53    0.90
  12  -2 -11    3.89    0.83
  12  -2  11    4.03    1.18
  12   2  11    4.71    0.85
  12  -2 -12    3.49    1.28
  12  -2  12    1.27    0.93
  12   2 -12    4.01    0.91
  12  -2 -12    2.42    0.82
  12   2  12    3.49    0.81
  12  -2  13   10.91    1.65
  12   2  13   11.85    1.09
  12   2 -13   13.26    1.26
  12   2  14   63.71    2.89
  12   2 -14   61.24    3.03
  12   2  15  222.34    8.19
  12   2 -15  217.09    8.42
  12   2 -16  262.65    9.56
  12   2  16  269.98    9.50
  12   2 -16  240.01    9.67
  12   2 -17   97.61    4.16
  12   2  17  102.23    4.24
  12  -2  17  103.88    4.05
  12   2  17   97.22    4.08
  12   2  18   40.24    2.03
  12   2  18   39.55    2.16
  12   2 -18   40.38    2.14
  12  -2  18   41.39    2.01
  12   2  19    6.76    0.92
  12   2 -19    6.18    0.92
  12  -2  19    6.31    0.85
  12   2  19    6.27    0.81
  12   2  20   14.59    1.20
  12   2 -20   12.52    1.12
  12  -2  20   14.80    1.11
  12   2  20   14.38    1.08
  12   2  21    8.36    0.93
  12   2 -21    5.51    0.84
  12  -2  21    7.27    0.84
  12   2  21    6.63    0.75
  12   2  22    8.68    0.93
  12   2 -22    8.51    0.89
  12  -2  22   10.88    0.91
  12   2  23    9.49    0.94
  12   2 -23    7.72    0.81
  12  -2  23    9.20    0.82
  12   2  24   14.80    1.06
  12  -2  24   14.87    0.94
  12   2 -24   12.36    0.91
  12   2  25    5.25    0.69
  12  -2  25    4.73    0.59
  12   2  26    9.70    0.78
  12  -2  26    8.36    0.66
  12   2  27   15.13    0.90
  12  -2  27   13.64    0.77
  12   2  28    0.83    0.35
  13  -2   0    0.12    0.89
  13   2   0    0.70    0.75
  13   2   0    0.43    0.66
  13   2  -1   87.59    3.81
  13   2   1   91.38    3.83
  13  -2   1   81.92    4.84
  13  -2  -1   89.64    4.97
  13   2  -1   86.34    3.73
  13   2   1   90.16    3.77
  13   2  -2   20.44    1.47
  13   2   2   19.08    1.42
  13  -2  -2   20.55    2.13
  13   2  -2   19.32    1.41
  13  -2   2   21.65    2.19
  13   2   2   19.56    1.39
  13   2  -3   98.61    4.17
  13  -2   3  101.44    5.39
  13  -2   3   96.66    3.88
  13  -2  -3  106.17    5.45
  13   2  -3  101.15    4.15
  13   2   3  101.34    4.15
  13   2  -4  206.06    7.71
  13  -2  -4  209.29    9.10
  13   2  -4  206.52    7.67
  13  -2   4  211.30    9.12
  13  -2   4  198.99    7.42
  13   2   4  204.00    7.69
  13   2  -5  199.25    7.32
  13  -2   5  188.76    8.57
  13  -2   5  185.96    6.98
  13  -2  -5  198.19    8.68
  13   2  -5  185.19    7.20
  13   2   5  197.05    7.27
  13   2  -6  185.07    6.91
  13  -2  -6  182.06    8.30
  13  -2   6  174.78    8.15
  13  -2   6  176.25    6.61
  13   2  -7   26.90    1.74
  13  -2  -7   25.56    2.49
  13  -2   7   26.09    2.42
  13  -2   7   28.00    1.52
  13  -2  -8   14.61    1.93
  13  -2   8   16.40    1.92
  13   2   8   18.73    1.39
  13  -2   8   16.05    1.13
  13   2  -8   15.95    1.36
  13  -2  -9    9.59    1.63
  13   2  -9    9.29    1.08
  13  -2   9    7.96    1.34
  13  -2   9    8.00    0.89
  13   2   9    7.86    1.02
  13  -2  10    0.13    0.81
  13  -2 -10    1.16    0.76
  13   2 -10    1.30    0.82
  13  -2  10    1.98    0.65
  13   2  10    1.29    0.75
  13  -2  11   82.26    3.41
  13   2  11   82.41    3.60
  13  -2 -11   80.03    3.69
  13   2 -11   84.77    3.74
  13  -2  12   20.40    1.36
  13   2  12   22.29    1.50
  13  -2 -12   17.83    1.48
  13   2 -12   19.03    1.56
  13  -2  13   21.24    1.37
  13   2  13   18.57    1.41
  13   2 -13   18.33    1.60
  13   2  14    9.43    1.10
  13   2 -14   12.55    1.32
  13  -2  14   10.84    1.04
  13   2  14    9.11    1.02
  13   2  15   73.73    3.41
  13   2 -15   81.35    3.49
  13  -2  15   82.25    3.32
  13   2  15   76.60    3.39
  13   2 -15   75.20    3.61
  13   2  16  129.91    4.98
  13   2 -16  116.98    4.89
  13   2  16  125.31    4.86
  13   2 -16  111.52    5.04
  13   2  17   38.07    2.04
  13   2 -17   35.37    1.98
  13   2  17   36.43    1.95
  13   2  18   68.04    3.03
  13   2 -18   63.38    2.96
  13  -2  18   66.47    2.86
  13   2  18   64.80    2.89
  13   2  19    0.89    0.65
  13   2 -19    1.72    0.70
  13  -2  19    0.98    0.73
  13   2  19    0.69    0.57
  13   2  20    0.41    0.61
  13   2 -20    0.29    0.60
  13  -2  20    0.14    0.58
  13   2  20    0.40    0.52
  13   2 -21   22.57    1.42
  13   2  21   21.98    1.41
  13  -2  21   24.46    1.37
  13   2  21   25.45    1.35
  13  -2  22    3.89    0.66
  13   2  22    3.58    0.68
  13   2 -22    3.76    0.66
  13   2  23    0.41    0.51
  13   2 -23    0.90    0.50
  13  -2  23    0.35    0.52
  13  -2  24    4.23    0.57
  13   2  24    4.17    0.63
  13   2 -24    3.94    0.54
  13   2  25    5.55    0.61
  13  -2  25    4.80    0.55
  13   2  26    8.96    0.67
  13  -2  26    8.13    0.60
  14  -2   0    9.91    1.58
  14   2   0   11.09    1.11
  14  -2   1    0.38    0.84
  14  -2  -1   -0.13    0.94
  14   2   1    0.29    0.72
  14   2  -1    0.92    0.68
  14  -2  -2    3.43    1.18
  14  -2   2    3.26    1.10
  14   2   2    3.44    0.80
  14   2  -2    3.77    0.93
  14   2  -2    3.48    0.82
  14   2  -3   57.33    2.73
  14   2   3   53.42    2.64
  14  -2  -3   53.44    3.68
  14  -2   3   52.62    3.60
  14  -2   3   54.28    2.40
  14   2  -3   52.38    2.59
  14   2  -4  253.65    8.78
  14  -2   4  227.93    9.98
  14  -2   4  222.58    8.36
  14   2  -4  230.57    8.60
  14   2   4  229.00    8.65
  14   2  -5  291.95   10.75
  14  -2   5  286.30   10.43
  14   2   5  301.80   10.72
  14   2  -6   85.92    3.81
  14  -2   6   86.01    3.57
  14   2   6   92.81    3.84
  14  -2   7   45.54    2.15
  14   2  -7   46.79    2.45
  14  -2   8   19.54    1.31
  14   2  -8   20.45    1.55
  14   2  -9   16.01    1.45
  14  -2   9   14.75    1.15
  14   2   9   15.84    1.36
  14  -2  10   13.86    1.14
  14   2  10   14.95    1.32
  14   2 -10   13.50    1.34
  14  -2 -11    3.78    0.88
  14  -2  11    4.58    0.82
  14   2 -11    5.29    1.01
  14   2  11    3.71    0.86
  14   2  11    4.96    0.95
  14   2  12    2.54    0.85
  14   2 -12    3.82    0.96
  14  -2  12    2.86    0.78
  14   2  12    3.47    0.87
  14   2 -13    5.43    1.07
  14  -2  13    5.94    0.89
  14   2  13    5.38    0.94
  14   2  13    6.79    0.93
  14   2  14    7.32    1.00
  14  -2  14    6.15    0.87
  14   2  14    6.24    0.92
  14   2 -14    5.18    1.12
  14   2  15   12.29    1.17
  14   2 -15    9.49    1.30
  14   2 -15   11.18    1.17
  14  -2  15   12.86    1.09
  14   2  15   12.23    1.11
  14   2  16   19.68    1.39
  14   2 -16   20.50    1.41
  14  -2  16   19.40    1.29
  14   2  16   19.36    1.35
  14   2 -16   17.68    1.54
  14   2 -17    9.60    1.03
  14   2  17    9.77    0.98
  14   2  17   10.77    1.02
  14   2  18   10.09    1.01
  14   2 -18    9.69    0.99
  14   2  18    9.62    0.94
  14   2  19    3.17    0.76
  14  -2  19    3.01    0.71
  14   2 -19    3.93    0.74
  14   2  19    2.65    0.64
  14   2  20   16.69    1.19
  14   2 -20   17.08    1.19
  14  -2  20   16.64    1.10
  14   2  20   18.38    1.13
  14   2  21   19.49    1.23
  14   2 -21   18.94    1.21
  14  -2  21   19.53    1.18
  14   2  21   19.93    1.14
  14   2  22    8.41    0.79
  14   2 -22    7.54    0.75
  14  -2  22    8.47    0.75
  14   2  23   13.01    0.91
  14  -2  23   14.06    0.88
  14   2 -23   12.73    0.85
  14   2  24    2.23    0.48
  14  -2  24    2.56    0.47
  14   2  25    1.29    0.37
  15   2   0    9.97    1.10
  15   2  -1    0.04    0.73
  15   2   1   -0.09    0.79
  15   2  -2   11.44    1.12
  15   2   2   13.56    1.22
  15   2  -3    8.67    0.99
  15   2   3    8.21    1.07
  15   2   4    0.99    0.82
  15  -2   4    0.30    0.60
  15   2  -5    8.77    1.17
  15  -2   5    7.93    0.88
  15   2   5    9.73    1.10
  15  -2   6   49.86    2.39
  15   2   6   56.67    2.68
  15   2  -6   56.28    2.79
  15   2   7    4.74    0.96
  15   2  -7    5.41    1.03
  15  -2   7    4.88    0.78
  15   2   7    5.12    0.97
  15   2   8   44.92    2.34
  15  -2   8   45.50    2.16
  15   2  -8   43.86    2.42
  15   2   9   43.89    2.22
  15  -2   9   38.44    2.00
  15   2  -9   40.68    2.29
  15   2  10   37.31    2.01
  15   2  10   34.05    2.01
  15  -2  10   36.88    1.88
  15   2 -10   35.84    2.19
  15   2  11    7.10    1.01
  15   2 -11    7.57    1.16
  15   2  11    7.55    0.98
  15  -2  11    8.35    0.93
  15   2 -11    8.18    1.03
  15   2  12   19.71    1.45
  15   2 -12   22.43    1.48
  15  -2  12   20.32    1.33
  15   2  12   17.51    1.38
  15   2 -12   19.85    1.61
  15   2  13    0.90    0.67
  15   2 -13    0.59    0.86
  15   2 -13    1.05    0.69
  15  -2  13    0.56    0.68
  15   2  13    1.62    0.75
  15   2 -14    5.35    1.05
  15   2  14    5.89    0.87
  15   2 -14    7.40    0.96
  15  -2  14    5.86    0.85
  15   2  14    6.77    0.90
  15   2 -15   -0.42    0.86
  15   2  15    0.04    0.62
  15   2  15    0.04    0.63
  15  -2  15   -0.15    0.64
  15   2  16    5.87    0.85
  15   2 -16    7.10    0.88
  15  -2  16    6.41    0.83
  15   2  16    7.92    0.88
  15   2 -17    1.28    0.62
  15   2  17    1.10    0.63
  15  -2  17    1.60    0.69
  15   2  17    1.60    0.62
  15   2  18    0.97    0.58
  15   2 -18    1.43    0.61
  15   2  18    1.60    0.59
  15   2  19    3.14    0.60
  15   2  19    2.83    0.62
  15   2 -19    3.07    0.62
  15   2 -20    7.16    0.74
  15   2  20    6.86    0.74
  15  -2  20    7.31    0.76
  15   2  20    7.65    0.71
  15   2  21   20.83    1.20
  15  -2  21   24.27    1.21
  15   2 -21   21.31    1.21
  15   2  21   21.80    1.14
  15   2  22   14.74    0.93
  15   2 -22   15.82    0.93
  15  -2  22   16.53    0.94
  15   2  23    3.98    0.48
  16   2   0   24.88    1.62
  16   2  -1   18.72    1.38
  16   2   1   20.98    1.50
  16   2   2    3.04    0.84
  16   2  -3    3.20    0.66
  16   2   3    2.09    0.85
  16   2  -4    1.78    0.64
  16   2   4    1.33    0.80
  16   2   4    0.63    0.79
  16   2   5    1.44    0.80
  16   2  -5    2.25    0.69
  16   2   5    2.12    0.83
  16   2   6    1.00    0.80
  16   2  -6    1.38    0.67
  16   2   6    0.50    0.76
  16  -2   7  106.12    4.28
  16   2  -7  113.79    4.48
  16   2   7  106.67    4.51
  16   2   7  114.15    4.55
  16   2   8  141.54    5.70
  16   2   8  143.61    5.71
  16   2  -8  153.57    5.72
  16  -2   8  144.51    5.51
  16   2   9   74.02    3.23
  16   2  -9   72.00    3.19
  16  -2   9   73.69    3.06
  16   2  -9   67.13    3.34
  16   2  10  186.25    6.95
  16   2 -10  187.23    6.94
  16  -2  10  183.35    6.77
  16   2 -10  171.89    7.07
  16   2  11   12.33    1.12
  16   2 -11   13.68    1.12
  16  -2  11   10.48    0.99
  16   2 -11    9.69    1.24
  16   2  11   12.75    1.13
  16   2 -12    0.37    0.84
  16   2  12   -0.04    0.63
  16   2 -12    0.41    0.66
  16  -2  12    0.26    0.66
  16   2  12    0.26    0.71
  16   2  13    9.37    0.95
  16   2 -13    8.01    1.10
  16   2 -13    8.25    0.95
  16  -2  13    8.04    0.89
  16   2  13    9.48    1.00
  16   2 -14    0.52    0.79
  16   2  14    1.00    0.62
  16   2 -14    0.39    0.65
  16  -2  14    0.72    0.64
  16   2  14    1.07    0.67
  16   2  15    3.97    0.73
  16  -2  15    4.44    0.73
  16   2  15    5.45    0.77
  16   2  16    4.28    0.68
  16  -2  16    4.34    0.72
  16   2  16    4.79    0.72
  16   2  17    2.12    0.58
  16  -2  17    2.11    0.60
  16   2  17    2.57    0.61
  16   2 -17    1.79    0.59
  16   2  18    6.46    0.69
  16   2 -18    6.12    0.71
  16  -2  18    5.90    0.70
  16   2  18    6.52    0.71
  16   2  19    0.68    0.46
  16   2  19    1.30    0.45
  16   2 -19    0.83    0.47
  16   2  20   23.86    1.24
  16   2 -20   24.19    1.25
  16   2  20   26.51    1.22
  16   2  21   37.89    1.65
  16   2 -21   37.41    1.65
  16  -2  21   41.08    1.68
  17   2   1    5.39    0.94
  17   2   1    3.73    0.80
  17   2   2    4.01    0.90
  17   2   2    3.54    0.80
  17   2   3    9.76    1.06
  17   2   3    8.34    0.99
  17   2   4    3.99    0.85
  17   2  -4    4.82    0.69
  17   2   4    4.15    0.84
  17   2   5    1.39    0.70
  17   2  -5    2.60    0.59
  17   2   5    1.21    0.73
  17   2   6    3.94    0.83
  17   2  -6    3.99    0.68
  17   2   6    4.71    0.86
  17  -2   6    3.80    0.66
  17   2   7   63.36    2.88
  17   2   7   65.20    2.92
  17   2  -7   63.97    2.81
  17  -2   7   63.80    2.73
  17   2   8   88.70    3.76
  17   2  -8   89.07    3.70
  17   2   8   90.00    3.79
  17  -2   8   93.83    3.65
  17   2   9  133.36    5.18
  17   2  -9  132.63    5.14
  17   2   9  138.40    5.22
  17  -2   9  128.45    5.03
  17   2  10   20.94    1.35
  17   2 -10   21.83    1.36
  17   2 -11    2.70    0.65
  17   2  11    2.71    0.68
  17   2  12    0.16    0.55
  17   2 -12    0.32    0.55
  17   2  12   -0.13    0.62
  17   2 -12   -0.08    0.79
  17   2  13    8.21    0.83
  17   2 -13    6.17    0.97
  17   2  13    9.45    0.92
  17   2 -13    8.67    0.85
  17   2  14    6.96    0.78
  17   2  14    7.36    0.77
  17   2 -14    7.51    0.78
  17   2  15    5.38    0.67
  17   2 -15    5.11    0.68
  17   2  15    5.57    0.70
  17   2  16    9.05    0.79
  17   2  16    9.70    0.81
  17  -2  16   10.30    0.79
  17  -2  17   12.61    0.83
  17   2  17   11.93    0.82
  17   2  18    1.15    0.41
  17   2 -18    0.77    0.41
  17   2  18    1.04    0.41
  17  -2  18    1.82    0.44
  17   2 -19    2.07    0.40
  17   2  19    2.68    0.39
  17  -2  19    2.76    0.43
  18   2   0    1.98    0.72
  18   2  -1    8.15    0.98
  18   2   1    7.64    0.95
  18   2  -2    0.62    0.73
  18   2   2    1.43    0.66
  18   2   3    6.58    0.85
  18   2  -3    6.41    0.95
  18   2   3    6.24    0.80
  18   2   4    2.97    0.73
  18   2   4    3.10    0.67
  18   2   5   50.15    2.38
  18   2  -5   51.15    2.24
  18   2   5   53.89    2.39
  18   2   6   11.15    1.00
  18   2  -6   11.12    0.86
  18   2   6   12.71    1.02
  18   2   7   74.71    3.17
  18   2  -7   74.98    3.08
  18   2   7   78.24    3.20
  18   2   8    4.92    0.72
  18   2  -8    3.85    0.61
  18   2   8    4.96    0.76
  18  -2   8    5.03    0.62
  18   2   9    2.88    0.64
  18   2  -9    4.04    0.62
  18   2   9    3.73    0.70
  18  -2   9    3.12    0.55
  18   2  10    5.28    0.71
  18   2 -10    5.96    0.69
  18   2  10    5.45    0.76
  18  -2  10    5.93    0.63
  18   2  11   23.73    1.34
  18   2 -11   24.61    1.33
  18  -2  11   27.28    1.32
  18   2  12    0.97    0.51
  18   2 -12    1.53    0.49
  18  -2  12    2.04    0.48
  18   2  13    0.09    0.43
  18   2 -13    0.07    0.42
  18   2  13    0.46    0.48
  18  -2  13    0.06    0.41
  18   2  14    2.46    0.50
  18   2 -14    2.38    0.49
  18   2  14    2.78    0.53
  18  -2  14    2.66    0.46
  18   2  15    5.16    0.54
  18   2 -15    4.32    0.52
  18   2  15    5.31    0.57
  18  -2  15    5.54    0.53
  18   2  16    0.02    0.33
  18   2  16   -0.17    0.36
  18   2 -16    0.27    0.34
  18  -2  16    0.27    0.34
  19   2   0   16.51    1.15
  19   2  -1   11.61    1.01
  19   2   1   11.39    0.98
  19   2  -2   14.64    1.12
  19   2   2   14.67    1.07
  19   2   3    3.63    0.68
  19   2  -3    2.82    0.69
  19   2   4   11.39    0.93
  19   2  -4   11.95    1.01
  19   2   5   32.44    1.64
  19   2  -5   34.28    1.75
  19   2  -6    1.22    0.63
  19   2   6    1.81    0.55
  19   2  -7    4.72    0.51
  19   2   7    5.89    0.66
  19   2  -7    5.14    0.78
  19   2   8   12.12    0.91
  19   2  -8   12.69    0.78
  19   2   9    2.58    0.52
  19   2  -9    3.59    0.46
  19   2  10    1.59    0.46
  19   2 -10    2.17    0.41
  19   2  11    4.22    0.50
  19   2 -11    4.40    0.47
  19   2  12    3.41    0.45
  20   2   0    0.02    0.44
  20   2  -1   13.44    0.91
  20   2   1   13.84    0.90
  20   2   2    4.88    0.60
  20   2  -2    5.99    0.65
  20   2  -3   28.68    1.44
  20   2   3   29.21    1.39
  20   2  -4   22.34    1.23
  20   2   4   24.12    1.20
  20   2  -5    0.40    0.43
  20   2   5    0.47    0.38
  20   2  -6    4.91    0.58
  20   2   6    4.70    0.49
   0  -3   0    1.35    0.46
   0  -3   0    2.24    0.39
   0  -3  -1    0.43    0.36
   0  -3  -1    0.58    0.27
   0  -3   1    1.54    0.54
   0  -3   1    0.64    0.31
   0  -3  -2  305.88   11.07
   0  -3  -2  307.69   10.87
   0  -3   2  323.44   11.48
   0  -3   2  315.36   11.09
   0  -3  -3    0.44    0.25
   0  -3   3    0.17    0.35
   0  -3  -3    0.22    0.26
   0  -3   3    0.38    0.57
   0  -3   4    6.96    0.98
   0  -3   4    7.82    0.79
   0  -3  -4    6.32    0.51
   0  -3  -4    6.10    0.50
   0  -3  -5    1.38    0.31
   0  -3   5    0.87    0.66
   0  -3   5    1.18    0.58
   0  -3   6   13.12    1.37
   0  -3  -6   12.16    0.80
   0  -3   6   12.16    1.11
   0  -3   7    0.38    0.57
   0  -3   7    0.28    0.75
   0  -3   8   66.66    3.29
   0  -3   9    0.13    0.65
   0  -3  10   36.99    2.55
   0  -3  10   37.74    2.39
   0  -3  11    0.80    0.83
   0  -3  11    0.77    0.72
   0  -3  12    3.62    0.91
   0  -3  12    4.04    1.09
   0  -3  13   -0.09    0.70
   0  -3  13    0.59    0.85
   0  -3  14   10.23    1.46
   0  -3  14   10.39    1.48
   0  -3  15    0.32    0.81
   0  -3  15   -0.11    0.78
   0   3  16 1137.89   38.83
   0  -3  16 1158.45   40.65
   0  -3  16 1123.74   40.51
   0   3  17    0.47    0.39
   0  -3  17    0.93    0.98
   0  -3  17    0.62    0.85
   0  -3  18   93.70    5.13
   0   3  18   93.75    3.72
   0  -3  18   97.66    5.34
   0  -3  19    0.25    0.84
   0  -3  19    0.14    0.90
   0   3  19   -0.09    0.46
   0   3  20  108.53    4.28
   0  -3  20  109.61    5.74
   0  -3  20  114.06    6.10
   0  -3  21    1.76    0.94
   0  -3  21   -0.62    1.02
   0   3  21    0.31    0.51
   0   3  22   45.47    2.15
   0  -3  22   46.30    3.28
   0  -3  22   47.46    3.66
   0  -3  23    1.47    1.11
   0   3  23    0.26    0.56
   0   3  24  122.24    4.77
   0   3  25    1.09    0.53
   0   3  26   13.11    1.06
   0   3  27    0.48    0.61
   0   3  29    0.85    0.58
   0   3  30    4.56    0.69
   0   3  31    0.08    0.49
   0   3  32   87.67    3.42
   0   3  33    0.43    0.37
   0  -3 -34   25.08    1.14
   1  -3   0   25.16    1.34
  -1  -3   0   23.99    1.14
   1  -3   0   24.96    1.47
  -1  -3   0   25.15    1.55
   1  -3  -1  102.11    3.94
   1  -3   1  102.21    4.18
   1  -3   1  100.80    4.01
  -1  -3   1  100.20    3.82
   1  -3  -1   97.75    4.01
  -1  -3  -1  100.41    4.16
  -1  -3  -1  100.70    3.68
  -1  -3   1  107.40    4.35
  -1  -3   2   91.61    3.89
   1  -3  -2   86.29    3.36
  -1  -3  -2   81.08    3.06
   1  -3  -2   81.34    3.36
   1  -3   2   85.53    3.51
  -1  -3   2   87.06    3.36
   1  -3   2   82.78    3.69
  -1  -3  -2   89.13    3.54
  -1  -3  -3    2.28    0.46
   1  -3   3    1.85    0.63
  -1  -3  -3    2.83    0.27
   1  -3   3    1.87    0.53
  -1  -3   3    2.38    0.45
  -1  -3   3    3.73    0.82
   1  -3  -3    1.94    0.42
  -1  -3  -4  261.77    9.87
   1  -3  -4  291.56    9.94
   1  -3   4  279.01   10.24
  -1  -3   4  288.74   10.62
  -1  -3   4  285.17   10.14
   1  -3   4  276.07   10.45
   1  -3   5   23.47    1.69
   1  -3  -5   23.74    1.27
   1  -3   5   23.99    1.56
  -1  -3   5   24.68    1.80
  -1  -3   5   22.20    1.45
   1  -3   6   41.82    2.46
   1  -3  -6   42.78    1.96
  -1  -3   6   43.19    2.57
   1  -3   6   45.88    2.37
  -1  -3   6   39.37    2.20
  -1  -3   7   18.88    1.74
   1  -3  -7   20.92    1.23
   1  -3   7   19.52    1.52
  -1  -3   7   19.90    1.46
   1  -3   7   19.75    1.64
   1  -3  -8   88.76    3.69
   1  -3   8   93.51    4.18
  -1  -3   8   86.01    4.03
  -1  -3   9   46.84    2.66
   1  -3   9   49.82    2.77
  -1  -3  10   29.41    2.25
   1  -3  10   27.47    2.01
  -1  -3  10   26.20    1.93
   1  -3  10   25.64    2.06
   1  -3  11   12.51    1.51
   1  -3  11   12.79    1.43
  -1  -3  11   13.99    1.62
  -1  -3  11   14.18    1.47
  -1  -3  12    9.68    1.44
   1  -3  12   11.98    1.46
   1  -3  12   11.27    1.39
  -1  -3  12   13.66    1.46
   1  -3  13    4.98    1.11
  -1  -3  13    4.54    1.03
  -1  -3  13    4.45    1.11
   1  -3  13    4.88    1.03
  -1  -3  14    2.38    1.03
   1  -3  14    2.38    0.91
   1  -3  14    1.98    0.94
  -1  -3  14    1.51    0.88
  -1  -3  15   29.43    2.43
   1  -3  15   24.11    2.20
   1  -3  15   27.94    2.34
  -1  -3  15   28.10    2.37
  -1  -3  16   80.14    4.55
   1  -3  16   83.92    4.61
  -1   3  16   79.36    3.21
   1  -3  16   80.46    4.47
   1   3  16   81.94    3.21
  -1  -3  16   78.28    4.56
   1   3  17  222.83    8.07
   1  -3  17  233.36    9.68
  -1   3  17  221.96    8.10
   1  -3  17  227.52    9.78
  -1  -3  17  234.90    9.90
  -1  -3  17  219.45    9.70
   1   3  18  191.32    6.91
  -1  -3  18  198.14    8.80
   1  -3  18  181.86    8.40
  -1   3  18  189.71    6.93
   1  -3  18  184.31    8.62
  -1  -3  18  177.29    8.43
   1  -3  19   15.15    1.84
   1  -3  19   16.47    2.02
  -1  -3  19   13.50    1.84
  -1  -3  19   15.84    2.09
   1   3  19   16.25    1.04
  -1   3  19   14.95    1.04
   1   3  20   94.02    3.70
   1  -3  20   91.54    5.05
  -1   3  20   90.07    3.68
  -1  -3  20   88.47    5.10
   1  -3  20   95.71    5.44
  -1  -3  20   90.43    5.36
   1   3  21  221.78    7.80
  -1  -3  21  203.44    9.37
   1  -3  21  206.50    9.74
  -1   3  21  207.40    7.76
  -1  -3  21  211.21    9.82
  -1  -3  22  137.71    7.04
   1   3  22  149.66    5.62
   1  -3  22  154.78    7.67
  -1  -3  22  147.23    7.58
   1   3  23  119.25    4.59
   1  -3  23  114.21    6.43
  -1  -3  23  107.56    6.35
   1   3  24   31.46    1.70
   1   3  25    8.01    0.88
   1   3  26   38.10    1.93
   1   3  27   67.83    3.09
   1   3  27   73.86    3.06
   1   3  28   39.32    2.00
   1   3  28   38.77    1.91
   1   3  29   13.12    1.01
  -1   3  29   12.51    0.98
   1   3  29   14.79    1.08
   1   3  30   12.49    0.94
  -1   3  30   11.49    0.90
  -1   3  30   12.31    0.96
   1   3  30   12.14    0.96
   1   3  31    8.42    0.77
  -1   3  31    9.78    0.82
   1   3  31    8.90    0.79
  -1   3  31    9.83    0.77
   1   3  32    2.16    0.49
  -1   3  32    1.87    0.43
   1   3  32    2.03    0.50
  -1   3  32    1.96    0.48
  -1   3  33    7.62    0.61
   1   3  33    9.72    0.67
  -1   3  33    9.57    0.66
   1   3  33    8.15    0.64
  -1  -3 -34    3.31    0.40
   1   3  34    3.67    0.41
  -1   3  34    3.24    0.39
  -2  -3   0  867.51   30.00
   2  -3   0  952.09   30.54
   2  -3  -1  468.34   16.10
  -2  -3   1  445.18   15.73
   2  -3   1  465.57   16.16
   2  -3   1  467.78   16.24
   2  -3  -2 1714.16   58.54
   2  -3   2 1700.79   58.67
   2  -3   2 1760.26   58.79
  -2  -3   2 1712.52   58.33
   2  -3  -3 2024.60   67.74
   2  -3   3 1983.73   67.95
   2  -3   3 1945.08   68.04
  -2  -3   3 2000.00   67.67
   2  -3  -4  346.34   12.46
   2  -3   4  360.70   12.78
   2  -3   4  354.20   12.87
  -2  -3   4  347.14   12.52
   2  -3  -5    1.03    0.47
   2  -3   5    0.62    0.61
   2  -3  -5    0.71    0.25
   2  -3   5    1.34    0.63
  -2  -3   5    1.85    0.53
   2  -3  -6  582.11   20.10
   2  -3   6  614.39   20.56
   2  -3   6  564.26   20.58
  -2  -3   6  546.39   20.28
   2  -3  -7   16.23    1.14
   2  -3   7   18.02    1.48
   2  -3   7   15.83    1.50
  -2  -3   7   15.91    1.30
   2  -3  -8   30.28    1.67
   2  -3   8   27.21    1.95
  -2  -3   8   25.14    1.80
   2  -3  -9   21.44    1.44
   2  -3   9   23.15    1.84
  -2  -3   9   18.73    1.59
   2  -3  10   54.65    3.18
  -2  -3  10   56.29    3.40
   2  -3  10   61.49    3.28
  -2  -3  10   58.17    3.15
   2  -3  11   55.60    3.25
   2  -3  11   58.13    3.27
  -2  -3  11   56.96    3.25
  -2  -3  11   56.53    3.50
  -2  -3  12  122.91    6.00
   2  -3  12  122.84    5.75
   2  -3  12  131.40    5.85
  -2  -3  12  123.65    5.78
  -2  -3  13  251.00   10.16
   2  -3  13  244.47    9.87
  -2  -3  13  231.95    9.81
   2  -3  13  233.13    9.74
  -2  -3  14   28.03    2.48
   2  -3  14   26.36    2.24
   2  -3  14   27.82    2.32
  -2  -3  14   30.26    2.41
   2  -3  15    1.80    0.82
   2  -3  15    2.39    0.98
  -2  -3  15    3.30    1.08
  -2  -3  15    3.64    1.08
  -2  -3  16  216.56    9.34
   2   3  16  209.11    7.57
   2  -3  16  209.80    8.99
   2  -3  16  207.83    9.15
  -2  -3  16  212.85    9.28
  -2  -3  17   60.51    3.91
   2  -3  17   57.36    3.66
   2   3  17   61.49    2.53
   2  -3  17   58.67    3.83
  -2  -3  17   60.64    3.94
   2   3  18    8.43    0.72
   2  -3  18    6.37    1.42
  -2  -3  18   10.01    1.62
  -2  -3  18   10.41    1.63
  -2  -3  19   10.54    1.70
   2   3  19   10.02    0.83
   2  -3  19    9.73    1.70
  -2  -3  19    7.74    1.43
   2   3  20   92.73    3.67
   2  -3  20   93.74    5.42
  -2  -3  20   88.09    5.33
  -2  -3  20   88.15    5.14
  -2  -3  21  291.52   13.04
   2   3  21  328.70   11.41
  -2  -3  21  312.50   13.51
   2   3  22  381.38   13.16
  -2  -3  22  348.77   14.83
  -2  -3  22  354.01   15.28
   2   3  23   84.83    3.45
  -2   3  23   81.38    3.43
  -2   3  24    4.02    0.69
   2   3  24    4.06    0.68
   2   3  25   16.28    1.22
  -2   3  25   15.53    1.13
   2   3  25   14.73    1.13
   2   3  26    6.47    0.82
   2   3  26    7.10    0.89
  -2   3  26    6.71    0.79
   2   3  27   14.48    1.17
   2   3  27   15.35    1.12
  -2   3  27   13.65    1.07
   2   3  28    3.07    0.69
  -2   3  28    2.65    0.62
   2   3  28    2.39    0.64
   2   3  29    4.05    0.66
  -2   3  29    3.80    0.63
   2   3  29    4.09    0.68
   2   3  30   40.38    1.97
   2   3  30   43.67    1.95
  -2   3  30   39.55    1.89
   2   3  31   21.92    1.26
   2   3  31   24.12    1.27
  -2   3  31   21.59    1.26
  -2   3  31   22.87    1.21
   2   3  32    3.40    0.50
   2   3  32    2.43    0.50
  -2   3  32    2.97    0.48
  -2   3  32    2.74    0.50
   2   3  33    9.03    0.66
  -2   3  33    8.80    0.65
  -2   3  33    9.46    0.63
  -2  -3 -34    2.58    0.37
  -2   3  34    1.62    0.31
   3  -3   0  746.81   25.97
   3  -3   1 1796.16   61.53
   3  -3  -1 1808.59   61.49
   3  -3   2  778.16   26.19
  -3  -3   2  723.41   25.67
   3  -3  -2  782.29   26.10
   3  -3  -3  350.64   12.29
   3  -3   3  346.91   12.45
  -3  -3   3  331.61   12.03
   3  -3  -4  145.23    5.54
   3  -3  -4  165.28    5.96
   3  -3   4  154.84    6.12
  -3  -3   4  153.02    5.80
   3  -3  -5   69.84    3.02
   3  -3   5   70.58    3.27
  -3  -3   5   68.39    3.01
   3  -3  -5   62.76    2.56
   3  -3   6   30.76    2.00
   3  -3   6   34.59    2.10
   3  -3  -6   31.80    1.77
  -3  -3   6   28.22    1.78
   3  -3  -7  292.03   10.66
   3  -3   7  287.37   11.05
   3  -3   7  299.09   11.09
  -3  -3   7  285.23   10.85
   3  -3  -8  301.79   10.54
   3  -3   8  302.34   11.03
  -3  -3   8  289.17   10.82
   3  -3  -9  196.51    7.55
   3  -3   9  199.51    8.02
  -3  -3   9  188.75    7.88
   3  -3 -10  201.71    7.58
   3  -3  10  202.17    8.05
  -3  -3  10  203.17    8.02
   3  -3 -11  165.04    6.57
   3  -3  11  155.00    6.87
   3  -3  11  161.66    7.01
  -3  -3  11  153.11    7.21
  -3  -3  11  166.23    7.06
   3  -3  12   79.09    4.20
  -3  -3  12   73.57    4.35
   3  -3  12   80.59    4.13
  -3  -3  12   82.89    4.30
   3  -3  13   42.59    2.99
  -3  -3  13   49.40    3.31
  -3  -3  13   48.79    3.17
  -3  -3  14   26.27    2.38
   3  -3  14   26.78    2.34
  -3  -3  14   30.84    2.49
  -3  -3  15   39.33    3.05
   3  -3  15   44.64    3.09
  -3  -3  15   40.84    3.03
   3  -3  16    0.24    0.83
  -3  -3  16    0.51    0.95
   3   3  16    0.19    0.37
  -3   3  16    0.20    0.42
  -3  -3  16   -0.38    0.84
  -3  -3  17   53.56    3.69
   3   3  17   50.88    2.22
   3  -3  17   51.26    3.57
  -3   3  17   51.97    2.29
  -3  -3  17   51.43    3.61
  -3   3  18   79.80    3.32
   3   3  18   82.39    3.29
  -3  -3  18   83.22    4.91
  -3  -3  19   14.45    1.99
   3   3  19   12.27    0.93
  -3   3  19   14.97    1.03
  -3  -3  19   14.72    1.91
   3   3  20    3.81    0.61
  -3   3  20    3.10    0.62
  -3  -3  20    3.61    1.19
  -3  -3  20    3.62    1.24
   3   3  21   99.93    3.91
   3   3  21   96.03    4.01
  -3   3  21   96.55    3.90
  -3  -3  21   95.80    5.63
  -3  -3  21   94.89    5.41
   3   3  22    3.63    0.67
  -3   3  22    4.59    0.67
   3   3  22    4.70    0.76
  -3  -3  22    4.32    1.34
   3   3  23   38.49    2.00
   3   3  23   35.54    1.86
  -3   3  23   38.69    1.90
   3   3  24    8.27    0.96
  -3   3  24    8.76    0.87
   3   3  24    8.23    0.86
   3   3  25   41.83    2.19
   3   3  25   44.70    2.13
  -3   3  25   43.78    2.09
  -3   3  26    7.26    0.79
   3   3  26    8.24    0.85
   3   3  26    6.44    0.88
   3   3  27   20.08    1.35
   3   3  27   20.02    1.28
  -3   3  27   21.45    1.26
   3   3  28    3.63    0.66
   3   3  28    4.02    0.72
  -3   3  28    4.29    0.62
   3   3  29    2.14    0.58
  -3   3  29    2.40    0.55
   3   3  29    1.71    0.58
   3   3  30    3.02    0.56
  -3   3  30    3.36    0.56
   3   3  30    3.67    0.62
   3   3  31    9.41    0.78
   3   3  31    8.52    0.73
  -3   3  31    8.57    0.71
  -3   3  32    0.31    0.35
   3   3  32    0.11    0.38
   3   3  32    0.29    0.41
  -3   3  32    0.46    0.39
  -3   3  33    2.40    0.37
   3   3  33    2.02    0.39
  -3   3  33    1.74    0.37
   4  -3   0    7.02    0.89
   4  -3  -1  380.13   13.81
   4  -3   1  384.92   13.85
   4  -3  -2  177.71    6.78
   4  -3   2  176.04    6.86
   4  -3  -2  170.49    6.47
   4  -3   3    4.48    0.79
   4  -3  -3    4.24    0.72
   4  -3  -3    3.62    0.57
   4  -3   4  159.94    6.26
   4  -3  -4  157.48    6.05
  -4  -3   4  147.49    5.82
   4  -3  -4  149.83    5.63
   4  -3  -5   65.88    2.92
   4  -3   5   59.49    3.05
   4  -3  -5   56.14    2.42
  -4  -3   5   59.15    2.79
   4  -3  -6    6.51    0.85
   4  -3   6    5.55    1.01
  -4  -3   6    5.82    0.83
  -4  -3   7  126.67    5.29
   4  -3  -7  122.91    5.08
   4  -3   7  116.86    5.37
  -4  -3   8  397.64   14.65
   4  -3  -8  386.77   14.30
   4  -3   8  400.31   14.76
  -4  -3   9   74.84    3.85
   4  -3  -9   72.78    3.51
   4  -3   9   75.35    3.91
  -4  -3  10  240.12    9.71
   4  -3 -10  234.52    9.22
   4  -3  10  245.02    9.75
  -4  -3  11  442.72   16.72
   4  -3 -11  435.06   16.16
   4  -3  11  449.61   16.71
  -4  -3  12   78.73    4.37
   4  -3  12   82.26    4.37
  -4  -3  13   64.60    3.85
   4  -3  13   65.34    3.79
  -4  -3  13   57.55    3.86
   4  -3  14   39.68    2.94
  -4  -3  14   43.49    3.17
  -4   3  14   41.00    1.91
  -4  -3  14   40.67    3.01
  -4   3  15    4.38    0.62
   4   3  15    4.20    0.58
  -4  -3  15    2.68    1.03
   4   3 -15    4.32    0.63
  -4  -3  15    4.62    1.22
  -4  -3  16    0.66    0.89
   4   3  16    0.35    0.33
   4   3 -16    0.32    0.43
  -4   3  16    0.47    0.45
  -4  -3  16    0.39    0.80
   4   3  16    0.50    0.41
   4   3 -17   13.24    1.00
   4   3  17   15.35    1.05
  -4   3  17   14.17    0.99
   4   3  17   14.37    0.93
  -4  -3  17   14.44    1.92
  -4  -3  17   16.14    2.01
  -4   3  18    0.43    0.48
  -4  -3  18    1.41    1.07
   4   3  18    0.56    0.50
   4   3  18    0.70    0.42
  -4  -3  18    0.43    0.92
  -4  -3  19   55.24    3.93
   4   3  19   59.88    2.54
  -4   3  19   58.42    2.59
  -4  -3  19   50.23    3.84
   4   3  19   60.73    2.67
  -4  -3  20   51.11    3.79
   4   3  20   55.16    2.58
   4   3  20   57.61    2.46
  -4   3  20   53.92    2.46
   4  -3  20   54.93    3.94
  -4  -3  20   53.09    3.90
   4  -3  21    2.83    1.22
  -4  -3  21    3.87    1.31
  -4   3  21    4.75    0.67
   4   3  21    4.76    0.69
   4   3  21    4.40    0.74
  -4  -3  21    3.29    1.19
   4   3  22   29.09    1.67
   4   3  22   26.74    1.51
  -4   3  22   27.04    1.52
   4  -3  22   26.73    2.76
  -4  -3  22   26.62    2.72
   4   3  23    7.98    0.83
  -4   3  23    7.18    0.78
   4   3  23    7.29    0.91
   4   3  24    7.88    0.84
   4   3  24    8.55    0.96
  -4   3  24    7.16    0.81
   4   3  25   47.23    2.38
   4   3  25   47.86    2.28
  -4   3  25   50.53    2.27
   4   3  26   17.04    1.28
   4   3  26   17.33    1.20
  -4   3  26   17.40    1.12
   4   3  27   39.15    2.04
   4   3  27   39.76    1.98
  -4   3  27   40.66    1.91
  -4   3  28    4.51    0.63
   4   3  28    4.16    0.67
   4   3  28    4.43    0.74
   4   3  29   10.48    0.92
   4   3  29   11.47    0.91
  -4   3  29   10.93    0.84
  -4   3  30    3.43    0.52
   4   3  30    4.38    0.60
   4   3  30    4.22    0.63
  -4   3  31    4.78    0.53
   4   3  31    4.27    0.59
  -4   3  32    1.13    0.35
   4   3  32    0.55    0.39
  -4   3  32    1.18    0.39
   4   3  33    5.11    0.49
  -4  -3 -33    5.04    0.51
  -4   3  33    4.90    0.45
   5  -3   0  156.59    6.32
   5  -3  -1   -0.28    0.64
   5  -3  -1    0.35    0.56
   5  -3   1   -0.06    0.71
   5  -3  -2   20.94    1.34
   5  -3   2   20.98    1.59
   5  -3  -2   22.26    1.57
   5  -3  -3  130.72    4.99
   5  -3  -3  129.66    5.35
   5  -3   3  123.10    5.43
   5  -3  -4   97.86    4.20
   5  -3   4   95.16    4.32
   5  -3  -4   91.41    3.75
   5  -3  -5   63.84    3.12
   5  -3   5   62.53    3.26
  -5  -3   6  165.97    6.68
   5  -3   6  162.89    6.87
   5  -3  -6  165.23    6.63
  -5  -3   7  196.33    7.87
   5  -3  -7  193.35    7.67
   5  -3   7  195.23    7.97
  -5  -3   8  179.50    7.37
   5  -3  -8  171.50    7.02
   5  -3   8  175.23    7.41
  -5  -3   9   47.17    2.91
   5  -3  -9   45.57    2.59
   5  -3   9   44.99    2.89
   5  -3 -10   10.17    1.18
   5  -3  10   10.14    1.48
  -5  -3  10   12.08    1.48
  -5  -3  11  104.67    5.13
   5  -3 -11   96.91    4.63
   5  -3  11   96.14    5.01
  -5  -3  12  310.99   12.60
   5  -3 -12  315.98   12.10
  -5  -3  13  135.43    6.57
  -5  -3  14   46.15    3.32
  -5  -3  14   46.58    3.42
   5   3  14   47.34    2.16
  -5   3  14   49.23    2.19
   5   3 -14   48.48    2.26
  -5   3  15    2.73    0.55
   5   3 -15    1.30    0.56
  -5  -3  15    1.29    0.93
   5   3  15    1.63    0.46
  -5  -3  15    2.86    1.16
  -5   3  16    5.41    0.67
   5   3  16    5.90    0.59
   5   3  16    4.88    0.69
   5   3 -16    6.03    0.74
  -5  -3  16    4.58    1.27
  -5  -3  16    5.16    1.32
   5   3  17   42.48    2.06
   5   3  17   43.37    1.93
  -5   3  17   42.39    2.01
   5   3 -17   40.42    2.05
  -5  -3  17   41.93    3.32
   5  -3  17   39.05    3.17
  -5  -3  17   43.40    3.28
  -5  -3  18    2.64    1.21
   5   3  18    2.64    0.52
   5  -3  18    1.72    1.15
  -5   3  18    2.58    0.59
   5   3  18    2.92    0.61
   5   3 -18    2.93    0.63
  -5  -3  18    2.73    1.10
   5   3  19    1.24    0.48
  -5   3  19    1.65    0.57
   5  -3  19    2.69    1.29
   5   3  19    1.81    0.65
  -5  -3  19   -0.15    1.00
  -5  -3  19    0.44    0.89
   5   3 -19    1.37    0.54
  -5  -3  20   22.80    2.48
   5   3  20   25.59    1.45
   5   3  20   27.66    1.59
   5  -3  20   24.80    2.59
  -5   3  20   26.54    1.47
  -5  -3  20   25.18    2.56
  -5  -3  21   17.12    2.13
   5   3  21   19.52    1.34
   5   3  21   17.47    1.18
  -5   3  21   18.33    1.19
  -5  -3  21   17.25    2.14
   5  -3  21   19.62    2.38
   5   3  22   32.74    1.89
   5   3  22   36.23    1.79
  -5   3  22   33.95    1.75
   5   3  23   12.83    1.11
   5   3  23   11.67    0.97
  -5   3  23   10.50    0.93
   5   3  24   19.35    1.34
   5   3  24   19.66    1.25
  -5   3  24   19.01    1.22
   5   3  25    1.45    0.58
  -5   3  25    1.10    0.57
   5   3  25    1.27    0.69
   5   3  26   22.14    1.43
   5   3  26   20.64    1.30
  -5   3  26   20.87    1.26
   5   3  27    1.91    0.67
   5   3  27    2.58    0.58
  -5   3  27    2.05    0.53
   5   3  28   53.13    2.44
   5   3  28   52.68    2.38
  -5   3  28   55.16    2.33
   5   3  29   10.46    0.91
   5   3  29   10.20    0.84
  -5   3  29   10.91    0.80
  -5   3  30    4.07    0.53
   5   3  30    4.67    0.63
  -5   3  31    2.20    0.40
   5   3  31    2.50    0.50
   5   3  32    9.81    0.71
  -5   3  32    9.31    0.61
  -5   3  32   10.36    0.68
  -5  -3 -33    2.75    0.39
   5   3  33    1.90    0.36
   6  -3   0   76.54    3.73
   6  -3   0   78.54    3.49
   6  -3   1    0.96    0.73
   6  -3  -1    0.82    0.63
   6  -3  -1    1.75    0.64
   6  -3   1    1.10    0.70
   6  -3   2  114.86    4.90
   6  -3  -2  120.38    5.14
   6  -3   2  121.91    5.22
   6  -3  -2  116.93    4.77
   6  -3  -3  105.71    4.68
   6  -3   3  103.85    4.78
   6  -3  -3  106.92    4.33
   6  -3  -4   33.31    2.12
   6  -3   4   35.58    2.30
   6  -3  -4   33.58    1.81
   6  -3  -5   70.17    3.45
   6  -3   5   69.71    3.63
   6  -3  -6  263.65    9.81
   6  -3   6  241.39    9.94
   6  -3  -7  173.25    7.00
   6  -3   7  167.40    7.25
  -6  -3   8  151.11    6.56
   6  -3  -8  153.86    6.33
   6  -3   8  143.01    6.57
  -6  -3   9   49.58    3.08
   6  -3  -9   50.06    2.84
   6  -3 -10    3.71    0.89
  -6  -3  10    4.17    1.06
   6  -3 -11   10.48    1.29
  -6  -3  11    9.43    1.41
  -6  -3  12   19.53    1.99
   6  -3 -12   18.97    1.77
   6   3 -12   20.20    1.30
  -6   3  12   20.97    1.23
   6  -3 -13   11.96    1.44
   6   3  13    8.00    0.76
  -6   3  13    8.11    0.79
   6   3 -13    9.39    0.88
  -6  -3  13    8.99    1.47
  -6  -3  14   43.12    3.20
  -6   3  14   51.21    2.22
   6   3  14   47.07    2.18
   6  -3  14   50.37    3.48
   6   3 -14   49.87    2.31
   6   3 -14   43.26    2.23
   6   3  15   19.11    1.22
   6  -3  15   17.95    2.09
  -6   3  15   19.65    1.22
   6   3 -15   20.22    1.31
  -6  -3  15   16.37    1.98
  -6  -3  16   13.26    1.97
   6   3  16   12.70    1.00
  -6   3  16   12.39    0.96
   6  -3  16   14.75    1.97
   6   3 -16   12.84    1.06
  -6  -3  16   12.88    1.79
  -6  -3  17   65.43    4.20
   6  -3  17   72.76    4.41
   6   3  17   66.29    2.86
  -6   3  17   65.41    2.80
  -6  -3  17   58.71    4.19
   6   3 -17   59.38    2.83
  -6   3  18   24.99    1.45
   6   3  18   28.13    1.57
   6   3  18   26.70    1.41
  -6  -3  18   27.07    2.72
   6  -3  18   25.28    2.59
   6   3 -18   24.12    1.51
  -6  -3  18   25.67    2.53
   6   3  19   13.60    1.14
   6   3  19   16.04    1.04
   6  -3  19   16.35    2.17
   6   3 -19   13.78    1.11
  -6  -3  19   14.01    1.91
  -6   3  19   15.00    1.09
  -6  -3  19   16.35    2.17
   6   3 -20    9.02    0.91
   6   3  20   10.39    0.87
  -6   3  20    8.43    0.84
   6  -3  20    8.32    1.72
  -6  -3  20   10.61    1.70
   6   3  20   10.05    1.00
  -6  -3  20    9.06    1.71
   6   3  21    0.80    0.50
  -6   3  21    1.43    0.56
   6   3  21    0.94    0.67
   6   3  22    7.71    0.80
  -6   3  22    6.72    0.74
   6   3  22    7.39    0.95
   6   3  23   29.16    1.74
   6   3  23   31.45    1.65
  -6   3  23   30.62    1.62
   6   3  24   87.54    3.69
   6   3  24   87.05    3.57
  -6   3  24   83.46    3.49
   6   3  25   25.98    1.60
   6   3  25   27.61    1.51
  -6   3  25   26.03    1.44
   6   3  26   29.11    1.68
   6   3  26   30.87    1.59
  -6   3  26   28.16    1.50
   6   3  27   89.73    3.69
   6   3  27   88.54    3.58
  -6   3  27   89.47    3.52
   6   3  28   78.47    3.38
  -6   3  28   85.11    3.26
  -6   3  29    7.81    0.65
   6   3  29    6.72    0.73
   6   3  30   11.59    0.85
  -6   3  30   11.25    0.74
   6   3  31    4.41    0.55
  -6   3  31    4.26    0.44
  -6  -3 -32    1.02    0.35
   6   3  32    0.74    0.35
   7  -3   0   29.42    1.88
   7  -3   0   31.33    2.15
   7  -3   1  158.48    6.34
   7  -3  -1  158.70    6.65
   7  -3   1  156.34    6.67
   7  -3  -1  155.25    6.24
   7  -3   2   22.24    1.63
   7  -3  -2   22.49    1.78
   7  -3   2   22.33    1.83
   7  -3  -2   22.15    1.54
   7  -3  -3    9.94    1.24
   7  -3  -3    7.50    0.92
   7  -3   3    8.38    1.06
   7  -3   3    9.17    1.23
   7  -3   4    8.08    1.10
   7  -3   4    7.10    1.14
   7  -3  -4    5.00    0.92
   7  -3   5    3.99    0.95
   7  -3  -5    3.65    0.88
   7  -3  -6   14.73    1.45
   7  -3  -7  125.39    5.57
   7  -3  -8   14.78    1.48
   7  -3  -9    5.15    0.98
   7  -3 -10   14.33    1.53
   7   3 -10   14.42    1.11
   7   3  11  146.75    5.70
   7  -3 -11  152.48    6.77
   7   3 -11  155.51    5.89
  -7   3  11  152.32    5.60
  -7   3  11  155.86    5.77
   7  -3  11  160.04    7.23
   7  -3 -12    5.81    1.13
   7   3  12    4.82    0.62
   7  -3  12    5.42    1.26
   7   3 -12    5.36    0.68
  -7   3  12    5.13    0.65
  -7   3  12    4.32    0.66
  -7   3 -12    4.81    0.68
   7   3 -12    5.51    0.76
  -7  -3  12    5.69    1.16
   7  -3 -13    1.51    0.86
   7   3 -13    2.73    0.62
   7  -3  13    3.47    1.14
  -7   3  13    3.09    0.62
  -7   3 -13    2.80    0.60
   7   3 -13    3.23    0.67
  -7  -3  13    1.29    0.77
   7   3  13    2.99    0.58
  -7  -3  14   30.29    2.57
   7   3  14   30.96    1.63
   7  -3  14   30.22    2.67
  -7   3 -14   28.22    1.55
   7   3 -14   31.36    1.74
  -7   3  14   33.81    1.65
   7   3 -14   27.08    1.66
  -7   3  15    0.65    0.54
   7   3 -15    0.52    0.58
   7   3  15    0.69    0.53
   7   3 -15    0.46    0.59
  -7  -3  15    0.38    0.85
   7  -3  15    1.22    1.01
  -7  -3  16   30.79    2.67
   7   3  16   32.07    1.75
  -7   3  16   32.59    1.70
   7  -3  16   32.82    2.89
   7   3 -16   33.85    1.83
   7   3  17  129.23    4.90
   7   3 -17  120.35    4.89
  -7   3  17  125.26    4.80
   7  -3  17  124.20    6.52
  -7  -3  17  120.28    6.71
  -7  -3  18  246.01   11.73
   7   3  18  295.02   10.30
   7  -3  18  274.10   11.33
  -7   3  18  292.71   10.18
   7  -3  18  310.37   12.41
  -7  -3  18  279.64   12.36
   7   3 -18  265.87   10.25
   7   3  19   65.19    2.90
   7  -3  19   56.42    3.59
  -7   3  19   67.73    2.79
   7   3 -19   59.36    2.84
   7  -3  19   59.38    4.21
  -7  -3  19   65.70    4.42
  -7  -3  19   57.22    4.00
   7   3  20   49.29    2.32
  -7   3  20   44.78    2.14
   7   3 -20   43.01    2.24
  -7  -3  20   39.65    3.24
   7   3  21    0.91    0.69
   7   3  21    0.38    0.45
  -7   3  21    1.50    0.56
   7   3 -21    0.76    0.58
   7   3  22   68.25    3.07
   7   3  22   63.71    2.88
  -7   3  22   71.24    2.90
   7   3  23    5.76    0.72
  -7   3  23    6.16    0.72
   7   3  23    5.74    0.84
   7   3  24  184.08    6.98
   7   3  24  180.40    6.80
  -7   3  24  186.05    6.77
   7   3  25   46.14    2.27
   7   3  25   45.62    2.11
  -7   3  25   44.84    2.05
   7   3  26   73.02    3.13
  -7   3  26   70.57    2.90
   7   3  27  120.82    4.63
  -7   3  27  115.11    4.42
  -7   3  28    5.85    0.58
   7   3  28    6.83    0.75
   7   3  29    7.37    0.74
  -7   3  29    5.93    0.54
  -7   3  30    0.34    0.29
   7   3  30   -0.02    0.42
   7   3  31    6.17    0.57
  -7  -3 -31    6.38    0.56
   7   3  32    0.66    0.30
   8  -3   0   57.66    3.33
   8  -3   0   61.11    3.05
   8  -3  -1   47.66    2.90
   8  -3   1   50.19    3.00
   8  -3  -1   48.32    2.60
   8  -3   1   47.72    2.65
   8  -3  -2    7.11    1.14
   8  -3   2    7.55    1.07
   8  -3   3   37.07    2.30
   8  -3  -3   37.96    2.52
   8  -3   4   19.61    1.66
   8  -3  -4   17.29    1.66
   8  -3   5   28.41    2.04
   8  -3  -5   27.08    2.08
   8  -3   6  119.07    5.34
   8  -3  -6  122.01    5.52
   8  -3   7   92.67    4.47
   8  -3  -7   95.65    4.64
   8   3   8   15.59    1.02
   8  -3   8   14.96    1.55
   8  -3  -8   16.35    1.62
  -8   3   8   14.27    0.94
   8  -3   8   14.06    1.72
   8   3  -8   17.34    1.19
   8  -3  -9    5.83    1.09
   8   3  -9    4.66    0.63
  -8   3   9    3.28    0.62
   8   3   9    4.43    0.60
  -8   3   9    5.10    0.65
   8  -3   9    5.25    1.20
   8   3  -9    5.82    0.79
   8   3   9    4.46    0.64
   8   3  10   20.33    1.24
   8  -3 -10   21.33    1.93
  -8   3  10   21.56    1.28
  -8   3  10   19.23    1.19
  -8   3 -10   19.78    1.19
   8  -3  10   22.56    2.14
   8   3  10   21.10    1.25
   8   3 -10   19.17    1.23
  -8   3  11    3.54    0.63
   8  -3 -11    2.93    0.98
   8  -3  11    2.83    0.98
   8   3  11    2.68    0.56
   8  -3  11    3.68    1.16
   8   3 -11    3.41    0.69
   8   3 -11    3.54    0.61
  -8   3  11    3.02    0.67
  -8   3 -11    2.76    0.60
   8   3  11    3.42    0.62
   8  -3 -12  136.71    6.16
   8   3  12  127.25    4.89
   8  -3  12  116.43    5.74
  -8   3  12  127.89    4.90
   8  -3  12  129.59    6.41
  -8   3 -12  122.07    4.77
   8   3 -12  129.40    5.03
   8   3  12  123.73    4.87
   8   3 -12  124.56    4.93
   8  -3 -13   35.97    2.71
   8   3  13   32.84    1.79
   8  -3  13   31.53    2.49
  -8   3  13   38.22    1.83
   8  -3  13   40.01    3.06
   8   3  13   35.07    1.79
   8   3 -13   35.65    1.89
   8   3 -13   30.61    1.80
   8  -3  14   41.83    3.17
   8   3  14   38.63    1.92
   8  -3  14   36.73    2.64
   8   3 -14   33.80    1.90
  -8   3  14   36.64    1.85
   8   3 -14   35.16    1.95
  -8   3  15   11.03    0.94
   8   3  15   11.49    0.98
   8   3 -15    9.61    1.07
   8  -3  15   11.28    1.79
   8  -3  15   12.33    1.60
   8   3 -15   10.90    1.04
   8  -3  16    2.04    1.20
   8  -3  16    2.00    1.02
   8   3  16    3.16    0.65
  -8   3  16    2.79    0.64
   8   3 -16    1.81    0.68
   8   3  17   16.03    1.23
   8  -3  17   14.98    2.04
  -8   3  17   16.38    1.12
   8  -3  17   13.74    1.75
   8   3 -17   13.75    1.18
  -8  -3  17   18.33    2.36
   8  -3  18   68.18    4.00
   8   3  18   72.77    3.16
   8  -3  18   71.26    4.60
   8   3 -18   67.25    3.15
  -8   3  18   73.38    3.05
  -8  -3  18   71.83    4.85
   8   3  19  159.02    5.99
  -8   3  19  155.87    5.82
   8   3 -19  145.67    5.96
   8   3  20  219.74    8.12
  -8   3  20  219.52    7.92
   8   3 -20  207.68    8.06
   8   3  21   11.27    1.09
   8   3 -21   10.82    1.03
  -8   3  21   10.67    0.90
   8   3  22   30.69    1.73
  -8   3  22   28.51    1.50
   8   3 -22   26.25    1.60
   8   3  23   64.74    2.88
  -8   3  23   59.17    2.60
   8   3  24   81.98    3.52
  -8   3  24   81.64    3.29
   8   3  25   82.20    3.38
  -8   3  25   75.00    3.09
   8   3  26  102.09    4.05
  -8   3  26   97.30    3.78
   8   3  27   13.23    1.01
  -8   3  27   12.82    0.81
  -8   3  28    3.30    0.42
   8   3  28    3.43    0.61
   8  -3  28    3.20    0.48
  -8  -3 -29    4.02    0.52
   8   3  29    3.69    0.57
   8   3  30   15.33    0.93
  -8  -3 -30   16.64    0.89
   8   3  31   15.49    0.85
   9  -3   0   95.93    4.43
   9   3  -1  140.44    5.53
   9  -3   1  164.11    6.36
  -9   3   2   32.64    1.41
   9  -3  -2   29.69    2.30
   9   3  -2   30.84    1.63
   9   3   2   26.76    1.52
   9  -3   2   32.63    2.16
   9  -3  -3    8.46    1.24
   9  -3   3    7.35    1.12
  -9   3   3    8.76    0.68
   9   3  -3    8.21    0.81
   9   3   3    6.50    0.71
   9   3   4    8.39    0.78
   9  -3  -4    6.80    1.21
   9  -3   4    8.24    1.18
   9   3   4    8.91    0.77
   9   3  -4    6.81    0.79
   9  -3   5  115.23    5.12
   9   3  -5  111.55    4.31
   9   3   5  113.67    4.35
   9  -3  -5  121.90    5.47
   9  -3   5  113.46    5.51
   9   3   5  103.03    4.28
   9   3  -6    8.08    0.76
   9   3   6    7.80    0.78
   9  -3  -6    9.29    1.31
   9  -3   6    7.43    1.29
   9  -3   6    9.20    1.27
  -9   3   6    9.16    0.77
   9   3   6    6.87    0.76
   9   3  -7   19.41    1.19
   9  -3   7   22.21    1.85
   9   3   7   19.00    1.19
   9  -3  -7   22.40    1.96
   9  -3   7   19.28    1.97
  -9   3   7   18.91    1.18
  -9   3  -7   18.36    1.16
   9   3   7   19.54    1.20
   9   3  -8   31.89    1.70
   9  -3   8   37.10    2.77
   9  -3   8   36.36    2.47
   9   3   8   36.78    1.78
   9  -3  -8   34.26    2.50
   9   3   8   32.49    1.71
  -9   3   8   31.37    1.67
  -9   3  -8   35.90    1.69
   9   3  -8   34.88    1.89
   9   3   9  135.38    5.12
   9  -3  -9  134.04    6.19
   9   3  -9  126.10    5.22
  -9   3   9  135.28    5.14
  -9   3   9  138.43    5.00
   9  -3   9  138.64    6.48
  -9   3  -9  129.54    4.98
   9   3   9  125.81    5.07
   9   3  -9  130.72    5.08
   9   3  10  178.33    6.76
   9  -3 -10  187.81    8.01
  -9   3  10  191.46    6.82
  -9   3  10  185.12    6.68
   9  -3  10  188.27    8.29
  -9   3 -10  176.84    6.65
   9   3  10  168.12    6.73
   9   3 -10  185.22    6.80
   9  -3  11  165.62    7.35
   9   3  11  170.99    6.41
   9  -3 -11  174.79    7.68
  -9   3  11  171.74    6.41
   9  -3  11  180.40    8.04
  -9   3 -11  169.38    6.29
   9   3  11  167.26    6.39
   9   3 -11  166.98    6.43
   9  -3  12  117.74    5.41
   9   3  12  109.29    4.36
   9  -3 -12  106.95    5.53
   9  -3  12  114.24    5.84
   9   3 -12  105.20    4.40
   9   3  12  108.08    4.33
  -9   3  12  111.33    4.33
   9   3 -12  101.86    4.38
   9  -3  13   77.69    4.25
   9  -3 -13   81.62    4.57
   9   3  13   80.02    3.35
  -9   3  13   81.97    3.33
   9   3 -13   74.47    3.39
   9   3  13   77.85    3.33
   9  -3  13   84.22    4.82
   9   3 -13   73.46    3.41
   9  -3  14    1.00    0.95
  -9   3  14    0.91    0.55
   9   3  14    1.14    0.62
   9  -3  14    0.84    0.95
   9   3 -14    1.17    0.66
   9   3 -14    1.30    0.66
   9   3  14    1.62    0.64
  -9   3  15    2.12    0.60
   9  -3  15    2.01    1.08
   9  -3  15    1.21    0.98
   9   3  15    1.84    0.65
   9   3 -15    1.73    0.77
   9   3 -15    2.61    0.73
  -9   3  16   38.49    1.92
   9  -3  16   42.58    2.89
   9   3  16   39.56    2.05
   9  -3  16   40.91    3.25
   9   3 -16   38.53    2.08
   9   3 -16   37.63    2.13
   9  -3  17   71.37    4.07
   9   3  17   77.23    3.24
  -9   3  17   72.98    3.07
   9  -3  17   77.30    4.73
   9   3 -17   65.35    3.16
   9   3  18    8.26    1.01
  -9   3  18    9.25    0.85
   9   3 -18    8.00    0.97
   9   3  19   23.03    1.55
   9   3 -19   22.10    1.51
  -9   3  19   23.33    1.35
  -9   3  20    1.57    0.53
   9   3  20    1.59    0.73
   9   3 -20    1.72    0.70
   9   3  21   94.47    3.94
   9   3 -21   90.53    3.86
  -9   3  21   91.57    3.67
  -9   3  22   17.24    1.08
   9   3  22   16.05    1.29
   9   3 -22   17.99    1.27
   9   3  23   26.01    1.59
  -9   3  23   23.89    1.30
   9   3  24   42.30    2.14
  -9   3  24   40.84    1.84
   9   3  25    1.22    0.63
  -9   3  25    0.87    0.38
   9   3  26   10.98    0.99
  -9   3  26   12.35    0.76
   9   3  27    2.61    0.61
   9  -3  27    2.32    0.49
   9  -3  28    7.77    0.60
   9   3  28    7.95    0.74
   9   3  29    0.76    0.43
   9   3  30   12.26    0.75
  10   3   0  132.56    5.08
  10   3   0  123.65    5.09
 -10   3   0  139.27    4.95
  10   3  -1   48.23    2.24
  10   3   1   44.93    2.20
  10  -3   1   44.49    3.13
 -10   3   1   49.98    2.14
 -10   3  -1   52.93    2.15
  10   3  -1   52.41    2.30
  10   3  -1   46.52    2.28
  10  -3   2    2.08    0.85
  10  -3   2    2.61    0.97
  10   3   2    1.70    0.54
  10   3  -2    2.27    0.55
 -10   3  -2    2.22    0.54
 -10   3   2    2.30    0.62
  10   3  -2    2.53    0.57
  10   3  -2    0.90    0.56
  10   3  -3   29.54    1.56
  10   3   3   28.06    1.54
  10  -3   3   31.30    2.49
 -10   3   3   25.78    1.45
 -10   3  -3   32.47    1.45
  10   3  -3   31.70    1.66
  10   3  -3   26.24    1.57
  10   3   3   25.98    1.52
  10  -3   3   27.98    2.12
  10   3  -4    6.68    0.76
  10   3   4    8.08    0.81
  10  -3   4    8.87    1.42
  10  -3   4    9.78    1.33
 -10   3  -4    9.04    0.79
 -10   3   4    6.06    0.80
  10   3   4    8.12    0.80
  10   3  -4    7.81    0.85
  10   3  -5   28.71    1.56
  10   3   5   28.95    1.59
  10  -3  -5   29.83    2.40
  10  -3   5   27.98    2.42
 -10   3  -5   30.91    1.49
  10   3   5   27.67    1.57
  10  -3   5   28.39    2.17
  10   3  -6   23.67    1.44
  10   3   6   25.54    1.49
  10  -3  -6   23.64    2.18
  10  -3   6   27.80    2.41
  10   3   6   24.47    1.45
  10  -3   6   27.84    2.17
  10   3  -7   17.42    1.21
  10   3   7   19.89    1.28
  10  -3  -7   18.76    1.92
  10  -3   7   21.63    2.14
 -10   3   7   17.77    1.23
  10   3   7   18.59    1.23
  10  -3   7   18.73    1.80
  10   3  -8   34.64    1.81
  10   3   8   36.55    1.89
  10  -3  -8   33.21    2.60
  10  -3   8   38.17    2.90
 -10   3   8   31.96    1.79
 -10   3   8   35.93    1.86
  10   3  -8   36.07    1.95
  10   3   8   34.39    1.83
  10  -3   8   39.69    2.63
  10   3   9   14.13    1.07
  10  -3  -9   13.52    1.68
  10  -3   9   14.37    1.84
 -10   3   9   11.05    1.00
  10   3  -9   11.86    1.10
  10   3   9   11.61    1.03
  10   3  -9   12.81    1.07
  10  -3 -10    9.58    1.53
  10   3  10   10.32    0.96
  10  -3  10    8.70    1.56
 -10   3  10    9.61    0.96
  10   3 -10   10.01    1.02
  10   3  10   10.50    0.98
  10   3 -10    9.84    0.95
  10  -3 -11   28.44    2.52
  10   3  11   33.10    1.75
 -10   3  11   32.11    1.72
  10  -3  11   32.54    2.81
  10   3  11   30.11    1.73
  10   3 -11   31.80    1.79
  10  -3  11   25.49    2.31
  10   3  12   22.41    1.44
  10  -3 -12   21.90    2.25
 -10   3  12   22.25    1.38
  10  -3  12   21.91    2.32
  10   3  12   21.19    1.40
  10   3 -12   22.34    1.51
  10  -3  12   21.24    2.05
  10  -3  13   15.10    1.77
  10  -3 -13   17.35    2.00
  10   3  13   18.20    1.28
  10  -3  13   17.99    2.13
  10   3 -13   13.26    1.22
 -10   3  13   17.94    1.20
  10   3  13   17.81    1.25
  10   3 -13   18.75    1.41
  10   3  14    9.61    0.98
  10   3 -14    9.65    1.08
  10  -3  14    8.68    1.61
  10   3 -14    9.18    0.98
  10  -3  14    7.19    1.41
 -10   3  14    9.94    0.88
  10   3  14   11.47    1.02
  10   3  15   10.72    1.06
  10   3 -15    9.10    1.13
  10  -3  15    9.87    1.51
  10   3 -15   10.20    1.05
 -10   3  15   10.84    0.91
  10  -3  15    8.48    1.61
  10   3  15    9.90    1.00
  10   3  16   63.86    2.92
 -10   3  16   63.23    2.74
  10   3 -16   59.43    2.88
  10   3  16   65.28    2.84
  10   3 -16   59.19    2.97
  10   3  17   53.19    2.52
 -10   3  17   51.27    2.31
  10   3 -17   46.21    2.45
  10   3 -18    7.02    0.95
  10   3  18    8.73    1.00
 -10   3  18    8.19    0.79
  10   3  19    8.19    0.97
  10   3 -19    7.12    0.97
 -10   3  19    8.14    0.75
  10   3  20   22.05    1.52
 -10   3  20   22.39    1.25
  10   3 -20   20.18    1.44
  10   3 -21   15.76    1.22
  10   3  21   14.52    1.24
 -10   3  21   14.74    0.97
  10   3 -22    5.64    0.80
 -10   3  22    5.01    0.57
  10   3  22    5.34    0.84
  10   3  23    1.74    0.68
  10   3 -23    2.66    0.65
  10   3  24   19.65    1.31
  10   3  25    7.25    0.80
  10  -3  25    7.29    0.71
  10   3  26    2.62    0.58
  10  -3  26    2.14    0.48
  10   3  27   10.59    0.83
  10  -3  27   10.28    0.71
  10   3  28    7.21    0.65
  10  -3  28    7.46    0.56
  10   3  29    2.07    0.41
  11   3   0    8.04    0.89
  11  -3   0    7.15    1.37
 -11   3   0    6.77    0.93
  11   3   0    7.75    0.89
  11   3  -1   41.97    2.04
  11   3   1   44.30    2.07
  11  -3  -1   42.04    2.99
  11  -3   1   45.01    3.09
 -11   3   1   32.74    1.94
  11   3   1   41.49    2.07
 -11   3  -1   40.68    2.05
  11   3  -1   42.51    2.03
  11   3  -1   40.49    2.07
  11   3  -2   72.73    3.10
  11   3   2   73.70    3.10
  11  -3   2   72.04    4.23
  11  -3  -2   70.27    4.17
 -11   3  -2   74.12    3.09
  11   3  -2   68.93    3.12
 -11   3   2   65.62    3.01
  11   3  -2   73.67    3.12
  11   3  -3   82.43    3.41
  11   3   3   86.98    3.45
  11  -3   3   82.80    4.62
 -11   3   3   75.29    3.31
 -11   3  -3   74.59    3.30
  11   3  -3   82.04    3.46
  11   3  -3   81.96    3.46
  11   3  -4   81.88    3.38
  11   3   4   81.78    3.39
  11  -3   4   87.42    4.67
 -11   3   4   71.45    3.31
 -11   3  -4   84.09    3.34
  11   3  -4   79.85    3.44
  11   3  -4   77.64    3.41
  11   3   4   77.02    3.36
  11   3  -5  134.47    5.07
  11  -3   5  134.53    6.02
  11   3   5  136.54    5.09
  11  -3   5  136.71    6.48
 -11   3   5  129.83    4.98
 -11   3  -5  112.50    4.90
  11   3  -5  131.39    5.14
  11   3   5  127.66    5.05
  11   3  -6   12.04    1.05
  11   3   6   12.89    1.09
  11  -3   6   13.43    1.62
  11  -3   6   12.57    1.80
  11   3  -6   14.83    1.18
  11   3   6   13.06    1.13
  11   3  -7  157.96    6.18
  11   3   7  169.88    6.23
  11  -3  -7  149.17    7.34
  11   3  -7  158.25    6.26
  11  -3   7  173.90    7.76
  11   3   7  159.66    6.18
  11  -3   7  163.49    7.14
  11  -3  -8    3.62    1.15
  11  -3   8    2.43    1.13
  11   3  -8    2.42    0.71
  11   3   8    2.55    0.64
 -11   3   8    2.50    0.68
  11  -3   8    1.05    0.96
  11   3  -8    2.74    0.75
  11   3   8    1.69    0.70
  11  -3  -9    6.70    1.38
  11  -3   9    7.58    1.47
  11   3  -9    7.28    0.89
  11   3   9    7.87    0.90
 -11   3   9    7.47    0.88
  11   3  -9    6.25    0.90
  11   3   9    8.02    0.94
  11  -3 -10   -0.37    0.90
 -11   3  10    0.82    0.60
  11  -3  10   -0.13    0.95
  11   3 -10   -0.30    0.62
  11   3 -10    0.08    0.64
  11   3  10    0.60    0.62
  11   3  10    1.43    0.71
  11  -3  11   34.94    2.91
  11   3  11   33.39    1.84
  11  -3 -11   30.03    2.71
 -11   3  11   31.73    1.73
  11   3 -11   30.84    1.86
  11   3  11   33.74    1.86
  11  -3  11   32.35    2.55
  11   3 -11   30.54    1.88
  11  -3 -12    1.05    0.93
  11   3 -12    1.53    0.74
  11  -3  12    2.57    1.09
  11  -3  12    2.24    1.11
  11   3  12    2.45    0.70
 -11   3  12    1.66    0.59
  11   3  12    2.49    0.71
  11  -3 -13    5.45    1.34
  11   3 -13    4.47    0.90
  11  -3  13    5.84    1.28
  11   3  13    5.74    0.82
 -11   3  13    5.20    0.71
  11  -3  13    4.57    1.29
  11   3  13    5.51    0.83
  11   3  14   20.83    1.44
 -11   3  14   20.10    1.26
  11   3 -14   19.58    1.40
  11   3  14   19.61    1.36
  11   3 -14   17.26    1.50
 -11   3  15    5.08    0.71
  11   3 -15    5.13    1.01
  11   3 -15    5.14    0.87
  11   3  15    5.22    0.87
  11   3  15    5.86    0.84
 -11   3  16   18.51    1.17
  11   3  16   18.92    1.40
  11   3 -16   17.71    1.37
  11   3  16   18.28    1.31
  11   3 -16   20.91    1.53
 -11   3  17   11.56    0.92
  11   3  17   13.16    1.18
  11   3 -17   11.22    1.10
  11   3  17   13.51    1.07
  11   3 -18   57.05    2.71
  11   3  18   58.12    2.76
  11   3  19   25.40    1.57
  11   3 -19   20.82    1.50
  11   3  20   33.51    1.89
  11   3 -20   33.41    1.87
  11   3  21    0.04    0.64
  11   3 -21    0.45    0.63
  11   3  22   26.47    1.56
  11   3 -22   24.60    1.50
  11   3  23    6.19    0.82
  11  -3  23    6.52    0.76
  11   3  24   14.72    1.10
  11  -3  24   16.31    1.02
  11   3  25    1.54    0.56
  11  -3  25    1.80    0.51
  11   3  26   13.99    0.94
  11  -3  26   12.82    0.82
  11   3  27    4.54    0.56
  11  -3  27    4.38    0.49
  11   3  28   13.87    0.81
 -12   3   0    0.21    0.89
  12  -3   0    1.71    0.98
  12   3   0    1.10    0.67
  12   3   0    0.80    0.66
  12   3  -1   14.63    1.19
  12   3   1   13.97    1.17
  12  -3  -1   12.25    1.76
  12  -3   1   13.92    1.82
  12   3  -1   13.74    1.19
 -12   3   1   11.51    1.23
 -12   3  -1   12.23    1.26
  12   3   1   13.99    1.18
  12   3  -2   50.72    2.35
  12   3   2   48.47    2.35
  12  -3  -2   49.55    3.42
  12  -3   2   48.47    3.35
 -12   3   2   45.57    2.34
  12   3  -2   46.10    2.25
  12   3  -2   47.24    2.36
  12   3   2   46.97    2.35
 -12   3  -2   38.60    2.36
  12   3  -3   20.51    1.43
  12   3   3   22.34    1.42
  12  -3   3   21.77    2.23
 -12   3  -3   18.41    1.48
  12  -3  -3   19.46    2.17
  12   3  -3   18.96    1.36
  12   3  -3   21.14    1.45
  12   3  -4  147.27    5.61
  12   3   4  147.39    5.64
  12  -3  -4  150.59    7.00
 -12   3  -4  128.62    5.55
  12  -3   4  148.21    7.05
  12   3  -4  146.05    5.63
  12   3  -5  225.29    8.52
  12   3   5  239.75    8.59
  12  -3  -5  237.22   10.01
  12  -3   5  235.28   10.09
  12   3  -5  233.65    8.60
  12   3   5  218.73    8.52
  12   3  -6   71.18    3.19
  12   3   6   73.43    3.21
  12  -3   6   72.85    4.41
  12   3  -6   72.86    3.24
  12   3   6   67.53    3.17
  12  -3   7    3.28    1.15
  12   3  -7    3.08    0.81
 -12   3   7    3.35    0.71
  12   3   7    3.48    0.74
  12   3  -7    3.31    0.78
  12   3   7    2.44    0.81
  12  -3   8    3.21    1.14
  12   3   8    3.43    0.81
 -12   3   8    4.23    0.73
  12   3  -8    3.93    0.85
  12   3  -8    4.92    0.82
  12   3   8    4.71    0.87
  12  -3   9    6.10    1.44
  12   3   9    6.43    0.90
  12   3  -9    6.64    0.95
 -12   3   9    7.07    0.84
  12   3  -9    8.10    0.97
  12   3   9    7.37    0.98
  12   3  10   23.47    1.53
  12  -3 -10   19.09    2.23
  12  -3  10   23.52    2.40
  12   3 -10   23.03    1.54
  12   3  10   23.37    1.57
  12   3 -10   24.68    1.61
  12   3  11    3.51    0.80
  12   3 -11    3.65    0.87
  12   3 -11    3.82    0.84
  12   3  11    3.67    0.83
  12   3  12   33.43    1.89
  12   3 -12   30.62    1.84
  12   3  12   34.52    1.92
  12   3 -12   30.04    1.95
  12   3  13  135.43    5.40
  12   3  13  134.77    5.37
  12   3 -13  135.42    5.51
  12   3  14  142.19    5.53
  12   3  14  140.58    5.51
  12   3 -14  135.63    5.64
  12   3  15   72.73    3.26
  12   3 -15   74.20    3.28
  12   3  15   74.30    3.22
  12   3 -15   68.27    3.35
  12   3 -16    7.97    1.15
  12   3  16    9.04    1.06
  12   3 -16   11.02    1.08
  12   3  16   10.42    0.99
  12   3  17   42.62    2.20
  12   3 -17   38.71    2.13
  12   3  17   41.65    2.07
  12   3  18   51.44    2.52
  12   3 -18   48.48    2.47
  12   3  18   53.24    2.40
  12   3  19   13.29    1.16
  12   3 -19   16.21    1.21
  12   3 -20    4.78    0.80
  12  -3  20    5.64    0.80
  12   3  20    4.38    0.78
  12   3  21    7.97    0.91
  12   3 -21    7.64    0.86
  12  -3  21    8.99    0.87
  12   3  22    1.49    0.62
  12   3 -22    1.95    0.59
  12  -3  22    1.94    0.58
  12   3  23    8.20    0.80
  12  -3  23    7.86    0.76
  12   3  24    0.96    0.52
  12  -3  24    1.00    0.49
  12   3  25    3.72    0.56
  12  -3  25    3.54    0.52
  12   3  26    2.78    0.47
  12  -3  26    2.24    0.43
  12   3  27    8.14    0.60
  13  -3   0    1.57    1.08
  13   3   0    2.33    0.78
  13   3   0    1.33    0.77
  13   3  -1   30.81    1.83
  13   3   1   30.50    1.81
  13  -3  -1   27.24    2.62
  13  -3   1   30.09    2.67
  13   3  -1   31.75    1.84
  13   3   1   29.35    1.82
  13   3  -2   16.16    1.31
  13   3   2   15.47    1.28
  13  -3  -2   14.04    1.90
  13  -3   2   15.67    1.96
  13   3  -2   14.87    1.16
  13   3  -2   13.50    1.21
  13   3   2   13.80    1.27
  13   3  -3   51.79    2.59
  13   3   3   55.72    2.60
  13  -3   3   53.92    3.68
  13   3  -3   50.94    2.51
  13  -3  -3   50.38    3.59
  13   3   3   52.18    2.62
  13   3  -4  102.81    4.25
  13   3   4  105.60    4.23
  13  -3  -4   96.47    5.42
  13  -3   4   88.69    5.33
  13   3  -4   99.39    4.19
  13   3  -5   58.43    2.71
  13   3   5   53.07    2.63
  13  -3  -5   48.57    3.56
  13   3  -5   53.88    2.64
  13  -3   5   51.28    3.64
  13  -3   5   54.41    2.36
  13   3   6   11.21    1.10
  13  -3   6    8.09    1.51
  13   3  -6    9.81    1.08
  13   3  -6   10.23    1.06
  13  -3   6    9.38    0.85
  13   3   6    8.60    1.12
  13   3   7   19.25    1.42
  13   3  -7   19.49    1.42
  13  -3   7   18.97    1.21
  13   3   7   18.55    1.45
  13   3  -7   19.37    1.47
  13   3   8  130.70    5.29
  13   3  -8  132.87    5.34
  13  -3   8  131.60    5.03
  13   3   8  131.63    5.34
  13   3  -8  134.64    5.33
  13   3   9   40.07    2.18
  13   3  -9   37.49    2.15
  13  -3   9   40.33    1.96
  13   3   9   43.34    2.26
  13   3  -9   40.65    2.23
  13   3  10    5.22    0.89
  13   3 -10    5.89    0.92
  13  -3  10    5.85    0.84
  13   3 -10    4.72    0.95
  13   3  10    6.24    0.96
  13   3 -11    4.26    0.93
  13   3  11    4.29    0.84
  13   3 -11    4.83    0.90
  13  -3  11    4.11    0.76
  13   3  11    3.47    0.84
  13   3  12   47.61    2.38
  13   3 -12   45.18    2.38
  13  -3  12   49.24    2.21
  13   3  12   46.08    2.39
  13   3 -12   42.57    2.44
  13   3  13   31.39    1.83
  13   3 -13   30.30    1.88
  13  -3  13   34.67    1.74
  13   3  13   32.99    1.91
  13   3 -13   31.73    1.99
  13   3  14   79.09    3.61
  13  -3  14   90.32    3.50
  13   3  14   85.05    3.64
  13   3 -14   81.61    3.78
  13   3  15  108.77    4.47
  13   3  15  106.50    4.40
  13   3  16  106.17    4.31
  13  -3  16  112.83    4.13
  13   3  16  104.99    4.23
  13   3  17    1.16    0.73
  13   3 -17    2.38    0.73
  13  -3  17    2.77    0.74
  13   3  17    1.67    0.66
  13   3 -18    5.52    0.83
  13  -3  18    6.56    0.85
  13   3  18    5.57    0.85
  13   3  18    5.63    0.77
  13   3  19    6.60    0.85
  13   3 -19    6.99    0.88
  13   3  19    6.93    0.77
  13   3  20    1.01    0.58
  13   3 -20    0.83    0.59
  13   3  21    1.62    0.60
  13   3 -21    1.24    0.56
  13  -3  21    1.36    0.57
  13   3 -22    8.39    0.79
  13   3  22    8.89    0.81
  13  -3  22    9.37    0.79
  13   3  23    0.13    0.48
  13  -3  23    0.51    0.49
  13   3  24    0.16    0.41
  13  -3  24    0.02    0.42
  13   3  25    1.19    0.39
  13  -3  25    1.26    0.39
  14   3   0    1.28    0.75
  14   3   0    1.11    0.81
  14   3  -1    5.32    0.96
  14   3   1    6.61    0.98
  14   3  -1    6.69    1.01
  14   3   1    7.32    1.08
  14   3  -2   10.46    1.14
  14   3  -2    8.65    0.93
  14   3   2   10.38    1.14
  14   3   2    9.48    1.09
  14   3  -3   21.87    1.57
  14   3   3   23.25    1.56
  14   3  -3   20.92    1.41
  14   3   3   18.49    1.52
  14   3  -4    3.89    0.90
  14   3   4    3.81    0.84
  14   3  -4    3.81    0.77
  14   3   4    3.13    0.90
  14   3  -5    5.49    0.95
  14   3   5    4.01    0.87
  14   3  -5    4.79    0.84
  14   3   6    6.32    0.91
  14   3  -6    6.59    1.03
  14   3  -6    5.60    0.88
  14  -3   6    6.50    0.77
  14   3   7   46.25    2.31
  14   3  -7   43.53    2.29
  14  -3   7   42.76    2.04
  14   3   7   46.06    2.38
  14   3  -7   42.63    2.33
  14   3   8   42.74    2.21
  14   3  -8   40.66    2.19
  14  -3   8   40.24    1.95
  14   3   8   42.86    2.27
  14   3  -8   36.81    2.20
  14   3   9   60.93    2.91
  14   3  -9   62.84    2.94
  14  -3   9   61.52    2.67
  14   3   9   63.68    2.98
  14   3  -9   61.04    2.98
  14   3 -10    4.30    0.97
  14   3 -10    4.70    0.87
  14  -3  10    3.65    0.72
  14   3  10    4.88    0.89
  14   3  10    4.03    0.90
  14   3  11   13.82    1.21
  14   3 -11   11.92    1.26
  14   3 -11   13.06    1.22
  14  -3  11   15.63    1.10
  14   3  11   13.84    1.27
  14   3  12   16.77    1.31
  14  -3  12   16.44    1.17
  14   3 -12   15.82    1.32
  14   3  12   16.07    1.30
  14   3 -12   14.42    1.39
  14   3  13   16.96    1.32
  14   3 -13   17.32    1.35
  14  -3  13   17.66    1.21
  14   3  13   18.33    1.35
  14   3 -13   17.51    1.49
  14   3  14   12.83    1.18
  14   3 -14   13.78    1.21
  14  -3  14   14.56    1.09
  14   3  14   13.93    1.18
  14   3 -14   14.34    1.35
  14   3  15   28.62    1.71
  14  -3  15   31.53    1.61
  14   3  15   28.32    1.68
  14   3 -15   29.00    1.86
  14   3  16   61.97    2.90
  14   3 -16   62.05    2.92
  14  -3  16   70.15    2.82
  14   3  16   67.73    2.91
  14   3  17   48.28    2.35
  14   3 -17   45.31    2.32
  14  -3  17   54.68    2.25
  14   3  17   48.65    2.29
  14   3 -18    3.20    0.71
  14  -3  18    3.47    0.67
  14   3  18    2.45    0.70
  14   3  18    3.19    0.63
  14   3 -19    0.85    0.57
  14  -3  19    0.82    0.58
  14   3  19    0.59    0.55
  14   3  19    0.50    0.48
  14   3  20    1.29    0.55
  14   3 -20    1.90    0.56
  14   3  21    6.14    0.70
  14   3 -21    5.55    0.68
  14   3  22    3.41    0.57
  14  -3  22    3.73    0.55
  14   3  23    0.77    0.43
  14  -3  23    0.29    0.41
  14  -3  24    2.47    0.40
  15   3   0   24.32    1.68
  15   3   0   24.80    1.67
  15   3  -1   73.95    3.34
  15   3   1   71.21    3.29
  15   3   1   69.25    3.25
  15   3  -2    0.71    0.77
  15   3   2    0.35    0.74
  15   3   2   -0.04    0.83
  15   3  -3    0.09    0.78
  15   3   3    0.74    0.79
  15   3  -3    0.15    0.54
  15   3   3    0.49    0.80
  15   3  -4    1.39    0.83
  15   3   4    2.53    0.80
  15   3  -4    1.26    0.62
  15   3   4    1.44    0.86
  15   3   5    6.83    0.99
  15   3  -5    7.83    1.05
  15   3  -5    7.72    0.91
  15   3   6   49.99    2.55
  15   3  -6   53.09    2.52
  15  -3   6   51.37    2.29
  15   3  -6   51.95    2.64
  15   3  -7    9.26    1.10
  15   3   7    6.94    0.98
  15   3  -7    8.68    0.99
  15  -3   7    7.79    0.83
  15   3   7    8.54    1.13
  15   3  -8    4.12    0.96
  15   3   8    5.77    0.90
  15   3  -8    4.03    0.84
  15  -3   8    3.64    0.70
  15   3   8    3.11    0.91
  15   3  -9    1.67    0.83
  15   3  -9    2.45    0.77
  15   3   9    1.63    0.76
  15  -3   9    2.35    0.70
  15   3   9    3.05    0.90
  15   3  10   23.92    1.56
  15   3 -10   23.60    1.57
  15  -3  10   23.53    1.37
  15   3  10   25.05    1.64
  15   3 -10   23.44    1.67
  15   3  11   82.67    3.57
  15   3 -11   84.50    3.62
  15  -3  11   83.42    3.39
  15   3  11   86.38    3.66
  15   3 -11   80.77    3.73
  15   3 -12    2.47    0.89
  15   3  12    2.31    0.74
  15   3 -12    2.27    0.75
  15  -3  12    2.59    0.69
  15   3  12    2.68    0.82
  15   3  13   13.07    1.15
  15   3  13   12.88    1.11
  15   3 -13   11.88    1.11
  15  -3  13   12.77    1.01
  15   3 -13   12.12    1.24
  15   3 -14    4.30    0.94
  15   3  14    3.50    0.73
  15   3 -14    3.72    0.77
  15  -3  14    3.94    0.73
  15   3  14    4.22    0.79
  15   3  15    1.48    0.63
  15  -3  15    2.02    0.64
  15   3  15    1.12    0.65
  15   3  16    5.97    0.77
  15  -3  16    6.52    0.77
  15   3  16    6.06    0.79
  15   3  17   10.76    0.92
  15   3 -17    9.93    0.92
  15  -3  17   10.80    0.88
  15   3  17    9.35    0.86
  15   3  18    0.03    0.52
  15   3 -18    0.20    0.52
  15  -3  18    0.07    0.50
  15   3  18   -0.02    0.46
  15   3  19    9.13    0.81
  15   3 -19    9.38    0.83
  15  -3  19   11.22    0.83
  15   3  19    8.82    0.74
  15   3 -20   21.57    1.25
  15  -3  20   28.07    1.28
  16   3   0   42.82    2.25
  16   3  -1    2.45    0.83
  16   3   1    3.33    0.83
  16   3  -2    0.21    0.75
  16   3   2    0.54    0.76
  16   3   2    0.41    0.76
  16   3   3    9.56    1.05
  16   3  -3    8.26    1.09
  16   3   3    8.43    1.05
  16   3   4   54.05    2.65
  16   3  -4   55.41    2.51
  16   3   4   58.18    2.72
  16   3  -4   53.15    2.70
  16   3  -5    2.29    0.87
  16   3   5    2.62    0.81
  16   3  -5    3.29    0.67
  16   3   5    1.83    0.82
  16   3   6    0.47    0.70
  16   3  -6    1.22    0.61
  16   3  -6    1.17    0.79
  16   3  -7    6.24    1.02
  16   3   7    6.31    0.91
  16   3  -7    6.48    0.84
  16  -3   7    5.47    0.72
  16   3   8    6.55    0.93
  16   3  -8    7.64    0.88
  16  -3   8    7.33    0.77
  16   3  -8    6.45    1.01
  16   3   8    6.78    1.04
  16   3   9   37.83    2.06
  16   3  -9   42.09    2.08
  16  -3   9   38.75    1.86
  16   3   9   41.88    2.15
  16   3  -9   41.15    2.23
  16   3  10   32.22    1.80
  16   3 -10   35.10    1.85
  16  -3  10   34.34    1.68
  16   3  10   32.20    1.87
  16   3 -10   33.61    1.99
  16   3  11   27.84    1.59
  16   3 -11   26.91    1.59
  16  -3  11   27.67    1.46
  16   3  11   28.10    1.64
  16   3 -11   25.95    1.73
  16   3  12   19.34    1.27
  16   3 -12   15.74    1.19
  16  -3  12   18.18    1.11
  16   3  12   17.18    1.26
  16   3 -12   14.26    1.30
  16   3 -13    4.15    0.88
  16   3  13    4.41    0.73
  16   3 -13    4.01    0.73
  16  -3  13    5.20    0.71
  16   3  13    3.67    0.71
  16   3  14   15.02    1.08
  16   3 -14   14.65    1.10
  16  -3  14   14.01    1.00
  16   3  14   15.69    1.10
  16   3  15   13.68    1.02
  16   3 -15   14.78    1.06
  16  -3  15   13.99    0.96
  16   3  15   15.37    1.05
  16   3  16    2.67    0.59
  16  -3  16    2.19    0.55
  16   3  16    2.25    0.56
  16  -3  17    3.43    0.57
  16   3  17    4.40    0.58
  16   3 -18    5.79    0.62
  16  -3  18    4.61    0.58
  16   3  18    4.93    0.56
  16  -3  19    8.58    0.66
  17   3   0    9.40    1.06
  17   3   1    4.34    0.82
  17   3  -1    4.74    0.88
  17   3  -2   -0.35    0.71
  17   3   2    0.15    0.64
  17   3  -3    4.57    0.86
  17   3   3    4.40    0.80
  17   3  -4    4.27    0.85
  17   3   4    4.90    0.82
  17   3  -5    1.99    0.74
  17   3   5    1.41    0.66
  17   3  -5    1.21    0.52
  17   3   5    1.19    0.73
  17   3  -6    4.17    0.85
  17   3   6    4.65    0.79
  17   3  -6    4.35    0.66
  17   3   6    4.40    0.83
  17   3   7   20.60    1.38
  17   3  -7   21.85    1.30
  17   3  -7   21.43    1.49
  17   3   8   15.41    1.14
  17   3  -8   15.26    1.09
  17   3  -8   15.53    1.28
  17   3   9   64.12    2.78
  17   3  -9   62.75    2.75
  17   3   9   65.07    2.84
  17  -3   9   66.24    2.64
  17   3  -9   61.80    2.92
  17   3  10   64.74    2.76
  17   3  10   65.44    2.80
  17   3 -10   61.50    2.72
  17   3 -10   63.08    2.90
  17   3  11   23.97    1.39
  17   3 -11   23.75    1.36
  17   3  11   24.93    1.43
  17   3 -11   23.85    1.53
  17   3  12   10.44    0.89
  17   3 -12   12.11    0.92
  17   3  12   11.24    0.93
  17   3 -12   12.04    1.07
  17   3  13    2.02    0.57
  17   3 -13    2.12    0.53
  17   3  13    1.87    0.56
  17   3 -14    0.35    0.45
  17   3  14   -0.02    0.47
  17   3 -15    0.55    0.45
  17   3 -16    5.74    0.60
  17  -3  16    7.42    0.59
  17  -3  17    2.56    0.42
  18   3   0    2.80    0.71
  18   3  -1   22.36    1.41
  18   3   1   24.75    1.46
  18   3  -2    7.94    0.91
  18   3   2    7.25    0.86
  18   3  -3    3.66    0.77
  18   3   3    4.24    0.76
  18   3   4   28.64    1.57
  18   3  -4   29.53    1.65
  18   3  -5    3.82    0.76
  18   3   5    4.15    0.67
  18   3   6    5.62    0.73
  18   3  -6    5.47    0.82
  18   3   7   25.30    1.42
  18   3  -7   26.40    1.32
  18   3  -7   26.93    1.55
  18   3   8   56.34    2.45
  18   3  -8   55.88    2.34
  18   3  -8   58.60    2.59
  18   3   9   40.24    1.82
  18   3  -9   37.98    1.71
  18   3  -9   35.23    1.87
  18   3 -10    1.26    0.61
  18   3 -10    1.42    0.44
  18   3 -11   12.31    0.82
  18   3 -12    3.95    0.50
  18  -3  12    4.86    0.48
  18   3 -13    1.01    0.37
  19   3   0    2.25    0.57
  19   3  -1    2.67    0.59
  19   3   1    1.84    0.57
  19   3  -2   12.70    0.96
  19   3   2   11.72    0.90
  19   3  -3   23.54    1.34
  19   3   3   24.32    1.30
  19   3   4    2.08    0.53
  19   3  -4    1.79    0.57
  19   3  -5    8.99    0.82
  19   3   5    9.67    0.78
  19   3   6   35.03    1.63
  19   3  -6   34.59    1.70
  19   3  -7   21.02    1.22
  19   3  -8   11.85    0.89
   0  -4   0  867.90   30.28
   0  -4  -1    0.96    0.53
   0  -4   1    0.78    0.41
   0  -4   1    2.33    0.75
   0  -4   2  568.58   19.70
   0  -4   2  552.25   19.13
   0  -4  -2  525.17   19.16
   0  -4   3    0.17    0.43
   0  -4   3    1.82    0.81
   0  -4   4   39.81    2.53
   0  -4   4   37.86    2.11
   0  -4   5    1.21    0.56
   0  -4   5    0.16    0.76
   0  -4   6  332.79   13.05
   0  -4   6  346.38   12.65
   0  -4   7    0.40    0.51
   0  -4   7    1.34    0.89
   0  -4   8  183.97    7.92
   0  -4   8  184.18    7.53
   0  -4   9    1.56    0.69
   0  -4   9    1.69    0.94
   0  -4  10    4.13    0.94
   0  -4  10    5.91    1.20
   0  -4  11   -0.18    0.67
   0  -4  11    0.43    0.89
   0  -4  12   22.97    2.00
   0  -4  13    0.52    0.76
   0  -4  13   -0.12    0.93
   0   4  14   17.30    1.07
   0  -4  14   19.51    1.96
   0  -4  14   19.24    2.05
   0  -4  15    0.77    0.91
   0   4  15    0.22    0.40
   0  -4  15    0.36    0.80
   0   4  16  118.88    4.55
   0  -4  16  119.83    6.13
   0  -4  16  113.19    6.09
   0  -4  17    0.96    1.01
   0   4  17    0.21    0.43
   0  -4  17    0.14    0.92
   0   4  18   23.31    1.34
   0  -4  18   20.81    2.32
   0  -4  18   23.33    2.45
   0  -4  19    0.28    0.99
   0   4  19    0.62    0.54
   0  -4  19    0.31    1.02
   0  -4  20  226.92   10.65
   0   4  20  244.47    8.90
   0  -4  21    2.40    1.03
   0   4  21    2.09    0.59
   0  -4  21    1.16    1.08
   0   4  22  654.62   22.69
   0   4  23    0.78    0.57
   0   4  24   54.79    2.47
   0   4  25    0.28    0.53
   0   4  25    0.68    0.54
   0   4  26    8.30    0.82
   0   4  26    7.23    0.81
   0   4  27    0.44    0.52
   0   4  27    0.26    0.50
   0   4  28   10.45    0.88
   0   4  28   11.18    0.90
   0   4  29    0.21    0.45
   0   4  29    0.33    0.46
   0   4  30   28.56    1.45
   0   4  30   31.04    1.47
   0   4  31    0.14    0.37
   0   4  31   -0.08    0.34
   0   4  32  102.75    3.84
   0   4  32  106.61    3.88
   0   4  33   -0.11    0.26
  -1  -4   0  552.98   19.27
   1  -4   0  529.81   18.81
   1  -4   0  532.15   19.06
  -1  -4  -1  196.27    7.68
   1  -4  -1  203.50    7.38
   1  -4   1  195.38    7.43
   1  -4  -1  192.52    7.50
   1  -4   1  202.28    7.77
  -1  -4   1  196.55    7.88
  -1  -4  -2   64.00    3.09
   1  -4  -2   70.41    2.92
   1  -4   2   68.55    3.08
  -1  -4   2   63.44    3.40
   1  -4   2   68.82    3.36
   1  -4   3   85.74    4.01
  -1  -4   3   85.57    4.12
   1  -4  -3   79.12    3.38
   1  -4   3   85.90    3.73
  -1  -4   4   51.55    3.02
   1  -4   4   49.54    2.63
  -1  -4   4   51.59    2.51
   1  -4   4   55.72    3.00
   1  -4   5  301.45   10.99
  -1  -4   5  287.45   10.76
  -1  -4   5  292.67   11.41
   1  -4   5  282.44   11.21
  -1  -4   6  194.71    8.30
   1  -4   6  204.21    7.95
  -1  -4   6  202.55    7.77
   1  -4   6  189.33    8.13
  -1  -4   7  103.48    5.32
   1  -4   7  116.99    5.10
  -1  -4   7  117.62    4.95
   1  -4   7  106.92    5.25
  -1  -4   8   38.93    2.76
   1  -4   8   41.56    2.51
  -1  -4   8   40.61    2.43
   1  -4   8   36.38    2.64
  -1  -4   9   37.37    2.82
   1  -4   9   44.27    2.66
  -1  -4   9   40.27    2.51
   1  -4   9   37.88    2.72
  -1  -4  10   12.15    1.64
   1  -4  10   10.79    1.51
   1  -4  10   10.20    1.32
  -1  -4  10   11.11    1.32
  -1  -4  11    3.56    1.14
   1  -4  11    3.54    0.93
  -1  -4  11    6.24    1.09
   1  -4  11    4.73    1.19
   1  -4  12   42.87    2.97
  -1  -4  12   50.19    3.09
  -1  -4  13   91.71    5.16
  -1   4  13   96.33    3.77
   1  -4  13   99.59    5.02
  -1  -4  13  104.82    5.08
  -1  -4  14   28.33    2.53
  -1   4  14   24.83    1.35
   1  -4  14   23.01    2.28
   1  -4  14   23.80    2.22
   1   4  14   23.13    1.28
  -1  -4  14   24.11    2.22
  -1  -4  15   14.48    1.91
   1  -4  15   16.24    1.98
   1   4  15   14.98    0.99
  -1   4  15   16.19    1.05
  -1  -4  15   16.52    1.90
   1  -4  15   17.52    1.95
   1  -4  16    6.62    1.41
   1   4  16    6.95    0.71
  -1  -4  16    6.14    1.44
   1  -4  16    6.75    1.42
  -1  -4  16    8.33    1.49
  -1   4  16    7.31    0.73
   1  -4  17   38.26    3.06
  -1   4  17   37.15    1.84
   1   4  17   36.39    1.79
   1  -4  17   41.14    3.16
  -1  -4  17   43.09    3.25
  -1  -4  17   36.48    3.09
   1   4  18   93.20    3.69
  -1   4  18   91.27    3.71
   1  -4  18   90.32    5.25
   1  -4  18   96.56    5.44
  -1  -4  18   97.24    5.48
  -1  -4  18   85.07    5.21
   1   4  19  109.05    4.20
  -1   4  19  105.13    4.21
   1  -4  19  103.74    5.77
   1  -4  19  104.02    5.94
  -1  -4  19   99.55    5.78
  -1  -4  19  111.07    6.09
  -1   4  20  109.26    4.25
   1   4  20  104.93    4.19
  -1  -4  20  100.54    5.80
   1  -4  20  105.06    6.01
  -1  -4  20  109.54    6.12
  -1   4  21  167.14    6.22
  -1  -4  21  157.00    7.91
   1   4  21  166.44    6.21
   1  -4  21  164.89    8.25
  -1  -4  21  160.65    8.20
   1   4  22   83.76    3.58
   1   4  22   86.70    3.53
  -1   4  22   86.53    3.54
   1   4  23   52.66    2.51
   1   4  23   56.10    2.47
  -1   4  23   54.88    2.49
  -1   4  24   -0.16    0.54
   1   4  24    0.51    0.56
   1   4  24   -0.37    0.53
   1   4  25   20.35    1.33
   1   4  25   22.33    1.32
  -1   4  25   20.55    1.29
   1   4  26    3.91    0.63
  -1   4  26    4.18    0.67
   1   4  26    4.07    0.68
  -1   4  26    3.51    0.64
   1   4  27    7.16    0.78
   1   4  27    6.22    0.74
  -1   4  27    6.40    0.74
  -1   4  27    7.34    0.78
   1   4  28   23.18    1.38
  -1   4  28   26.06    1.40
   1   4  28   25.02    1.36
  -1   4  28   25.84    1.39
   1   4  29   43.22    1.96
  -1   4  29   39.90    1.92
   1   4  29   43.60    1.92
  -1   4  29   42.63    1.93
   1   4  30   23.00    1.24
  -1   4  30   24.22    1.24
   1   4  30   23.64    1.24
  -1   4  30   22.72    1.23
   1   4  31    5.90    0.56
  -1   4  31    5.11    0.54
  -1   4  31    6.23    0.58
   1   4  31    4.87    0.55
   1   4  32    1.46    0.36
   1   4  32    1.56    0.35
  -2  -4   0   45.18    2.59
   2  -4   0   47.13    2.35
   2  -4  -1   73.90    3.39
   2  -4   1   78.47    3.49
  -2  -4  -1   77.36    3.66
  -2  -4   1   84.62    3.89
   2  -4  -2   71.82    3.16
  -2  -4  -2   67.62    3.29
   2  -4   2   73.35    3.33
   2  -4   2   69.47    3.42
  -2  -4   2   71.96    3.66
   2  -4   3   32.76    2.10
   2  -4   3   33.83    2.00
   2  -4  -3   31.87    1.79
  -2  -4   3   32.56    2.28
   2  -4  -4 1276.37   43.28
   2  -4   4 1288.96   43.68
   2  -4   4 1216.94   43.81
  -2  -4   4 1247.30   44.09
  -2  -4   5  380.76   14.29
   2  -4  -5  366.55   13.36
   2  -4   5  380.66   14.05
   2  -4   5  372.57   13.82
   2  -4  -6  677.94   24.22
  -2  -4   6  673.76   25.21
   2  -4   6  747.94   24.91
   2  -4   6  695.26   25.01
  -2  -4   6  696.43   24.47
  -2  -4   7  138.88    6.54
   2  -4   7  154.81    6.33
   2  -4   7  143.14    6.38
  -2  -4   7  141.11    5.93
  -2  -4   8  125.08    5.89
   2  -4   8  115.35    5.52
   2  -4   8  119.46    5.45
  -2  -4   8  118.43    5.20
  -2  -4   9  217.74    9.33
   2  -4   9  214.77    9.07
   2  -4   9  226.43    9.01
  -2  -4   9  216.06    8.73
   2  -4  10   34.99    2.62
   2  -4  10   39.27    2.62
  -2  -4  10   36.44    2.43
  -2  -4  10   35.93    2.81
   2  -4  11    3.77    1.05
   2  -4  11    5.18    1.09
  -2  -4  11    4.89    1.02
   2  -4  12  178.56    7.92
  -2  -4  12  184.41    7.93
  -2  -4  13  143.79    7.10
  -2   4  13  148.95    5.53
   2  -4  13  131.13    6.74
   2  -4  13  156.38    6.93
  -2  -4  13  147.45    6.84
  -2  -4  14   17.32    2.05
   2   4  14   16.86    1.02
  -2   4  14   18.01    1.12
   2  -4  14   15.88    1.81
  -2  -4  14   17.29    1.94
   2  -4  14   20.80    2.09
  -2  -4  15   73.37    4.52
  -2   4  15   72.33    2.99
   2  -4  15   67.90    4.21
   2  -4  15   68.75    4.22
   2   4  15   70.65    2.89
  -2  -4  15   73.47    4.36
   2  -4  16   17.87    2.06
   2   4  16   16.49    1.01
  -2   4  16   15.87    1.07
   2  -4  16   16.84    1.97
  -2  -4  16   15.00    1.93
  -2  -4  16   12.60    1.89
   2   4  17    1.07    0.45
  -2   4  17    1.08    0.53
   2  -4  17    0.41    0.91
  -2  -4  17    0.58    0.97
  -2  -4  17    0.58    0.92
  -2  -4  18    1.21    1.09
   2   4  18    1.65    0.48
  -2   4  18    1.23    0.56
   2   4  18    1.06    0.52
   2  -4  18    1.88    1.07
  -2  -4  18    0.73    1.00
   2   4  19   55.94    2.52
   2   4  19   56.12    2.46
  -2   4  19   55.96    2.52
   2  -4  19   56.70    4.00
  -2  -4  19   53.35    3.97
  -2  -4  19   53.91    3.92
   2   4  20  182.78    6.94
   2   4  20  194.04    6.89
  -2   4  20  182.37    6.92
   2  -4  20  195.98    9.01
  -2  -4  20  168.95    8.62
  -2  -4  20  182.05    8.90
   2   4  21  113.33    4.64
   2   4  21  120.87    4.59
  -2   4  21  119.12    4.64
   2  -4  21  114.68    6.42
  -2  -4  21  113.01    6.26
  -2  -4  21  120.59    6.54
  -2   4  22    4.37    0.71
   2   4  22    3.98    0.71
   2   4  22    2.87    0.62
  -2   4  23    3.50    0.64
   2   4  23    2.95    0.66
   2   4  23    3.08    0.63
   2   4  24    1.01    0.51
  -2   4  24    1.65    0.56
   2   4  24    0.92    0.56
   2   4  25    0.25    0.53
   2   4  25    0.53    0.48
  -2   4  25    0.47    0.56
   2   4  26   52.58    2.41
   2   4  26   51.31    2.33
   2   4  27    2.58    0.59
   2   4  27    1.92    0.55
   2   4  28   11.41    0.90
  -2   4  28   11.35    0.88
   2   4  28   10.01    0.82
   2   4  29   26.80    1.41
  -2   4  29   25.74    1.36
   2   4  29   26.58    1.36
   2   4  30   10.73    0.77
  -2   4  30    9.69    0.73
   2   4  30    9.20    0.74
   2   4  31    8.03    0.65
   2   4  31    8.43    0.66
   2   4  32   13.09    0.77
   2   4  32   14.44    0.80
  -2   4  32   14.15    0.79
   3  -4   0   42.42    2.32
   3  -4  -1  261.19    9.76
   3  -4   1  259.25    9.81
   3  -4  -2  264.80   10.01
   3  -4   2  274.25   10.18
   3  -4  -3  546.36   19.68
   3  -4   3  569.93   19.96
   3  -4   4 1047.13   36.10
   3  -4  -4 1023.54   35.75
  -3  -4   5  238.84   10.19
   3  -4  -5  258.04    9.47
   3  -4   5  254.33    9.84
   3  -4  -6  674.17   24.02
   3  -4   6  715.57   24.59
  -3  -4   6  666.57   24.96
   3  -4  -7  377.28   13.78
   3  -4   7  391.68   14.38
  -3  -4   7  368.99   14.76
   3  -4  -8   32.55    1.98
   3  -4   8   37.66    2.49
  -3  -4   8   30.69    2.59
  -3  -4   9    8.95    1.44
   3  -4  -9    7.70    0.93
   3  -4   9   10.54    1.37
  -3  -4   9    9.12    1.14
   3  -4 -10   48.73    2.70
  -3  -4  10   47.64    3.38
   3  -4  10   51.91    3.19
  -3  -4  10   52.75    3.01
   3  -4  11   94.60    4.86
  -3  -4  11   92.44    4.69
  -3   4  12   70.48    2.97
   3  -4  12   71.37    4.08
  -3  -4  12   71.51    4.02
  -3   4  13    7.94    0.80
  -3  -4  13    6.19    1.20
   3  -4  13    6.07    1.28
  -3  -4  13    6.32    1.44
  -3   4  14    2.76    0.56
   3  -4  14    2.61    1.02
  -3  -4  14    3.42    1.10
  -3  -4  14    3.62    1.26
   3   4  15   15.47    0.93
  -3   4  15   14.00    1.03
  -3  -4  15   16.19    2.05
   3  -4  15   12.87    1.80
  -3  -4  15   14.29    1.85
  -3  -4  16    3.82    1.33
   3   4  16    5.81    0.59
  -3   4  16    4.74    0.66
   3   4  16    4.70    0.63
   3  -4  16    6.19    1.39
  -3  -4  16    4.87    1.28
  -3  -4  17   44.43    3.51
   3   4  17   43.16    2.10
   3   4  17   46.31    2.04
  -3   4  17   44.15    2.11
   3  -4  17   41.15    3.31
  -3  -4  17   51.52    3.62
   3   4  18   14.20    1.05
   3   4  18   13.49    0.96
  -3   4  18   14.25    1.06
   3  -4  18   13.66    1.93
  -3  -4  18   14.73    2.01
  -3  -4  18   13.49    2.00
   3   4  19   17.46    1.19
  -3   4  19   17.83    1.22
   3  -4  19   14.86    2.08
  -3  -4  19   18.09    2.23
  -3  -4  19   18.39    2.26
   3   4  19   16.97    1.10
   3   4  20    2.32    0.54
   3  -4  20    0.94    0.99
   3   4  20    2.01    0.59
  -3  -4  20    2.13    1.15
  -3  -4  20    1.75    1.14
   3   4  21    2.78    0.57
   3   4  21    3.35    0.67
   3   4  22   30.11    1.71
   3   4  22   29.78    1.60
   3   4  23   25.08    1.49
   3   4  23   23.76    1.39
   3   4  24    3.37    0.61
   3   4  24    3.11    0.69
   3   4  25    1.63    0.58
   3   4  25    2.15    0.65
   3   4  26   10.66    0.94
   3   4  26    8.79    0.84
   3   4  27   24.35    1.42
   3   4  27   27.63    1.41
  -3   4  27   23.40    1.37
  -3   4  28    0.90    0.47
   3   4  28    0.24    0.46
  -3   4  28    1.00    0.47
   3   4  28    1.51    0.47
  -3   4  29    3.49    0.54
   3   4  29    3.39    0.57
   3   4  29    3.10    0.53
   3   4  30    3.83    0.50
  -3   4  30    4.37    0.53
   3   4  30    4.29    0.55
   3   4  31    1.16    0.37
  -3   4  31    1.73    0.38
   3   4  31    1.60    0.39
  -3   4  32    0.75    0.32
   4  -4   0  511.60   18.42
   4  -4  -1  852.96   30.28
   4  -4   1  878.55   30.39
   4  -4  -2  484.03   17.84
   4  -4   2  511.06   18.02
   4  -4  -3  221.74    8.53
   4  -4  -3  246.21    9.05
   4  -4   3  246.11    9.22
   4  -4  -4   39.50    2.28
   4  -4   4   40.03    2.47
   4  -4  -5  158.85    6.44
   4  -4   5  158.95    6.74
   4  -4  -6  743.72   26.60
   4  -4   6  775.05   27.09
   4  -4  -7   23.93    1.69
   4  -4   7   22.57    1.93
   4  -4  -8   13.65    1.26
   4  -4   8   13.86    1.59
   4  -4  -9   14.82    1.37
   4  -4   9   13.54    1.60
  -4  -4   9   16.87    1.96
  -4  -4  10   15.20    1.91
   4  -4 -10   17.74    1.54
   4  -4  10   17.17    1.84
   4  -4 -11   64.92    3.37
   4  -4  11   63.76    3.82
  -4   4  11   64.21    2.73
   4   4 -11   60.66    2.72
  -4   4  12   61.07    2.63
   4  -4  12   64.12    3.84
   4   4 -12   57.61    2.64
  -4  -4  12   59.61    3.61
   4  -4  13    8.65    1.48
  -4   4  13    7.16    0.78
  -4  -4  13    8.82    1.62
  -4  -4  13    7.12    1.31
   4   4 -13    6.61    0.78
  -4  -4  14   10.41    1.73
   4  -4  14   10.08    1.58
  -4  -4  14   12.76    1.65
   4   4  15    8.44    0.80
   4  -4  15   11.09    1.67
  -4  -4  15    9.63    1.54
  -4  -4  15    9.07    1.68
   4   4  16   34.11    1.75
  -4  -4  16   34.19    3.07
   4  -4  16   32.77    2.85
  -4  -4  16   38.21    3.01
  -4  -4  17    0.47    1.09
   4   4  17    0.60    0.41
   4  -4  17    0.57    1.00
   4   4  17   -0.03    0.45
  -4  -4  17   -0.72    0.99
  -4  -4  18   20.20    2.43
   4   4  18   22.54    1.38
   4   4  18   22.55    1.25
   4  -4  18   22.74    2.47
  -4  -4  18   23.11    2.45
  -4  -4  19   36.55    3.23
   4   4  19   39.48    2.02
   4  -4  19   39.15    3.28
   4   4  19   41.64    1.91
  -4  -4  19   38.50    3.22
   4   4  20    0.44    0.47
   4  -4  20    0.64    0.95
   4   4  20    0.04    0.52
  -4  -4  20    0.77    0.95
  -4  -4  20    0.16    0.94
   4   4  21   21.38    1.37
   4   4  21   21.51    1.28
  -4   4  21   19.74    1.30
   4   4  22    2.58    0.60
  -4   4  22    3.43    0.66
   4   4  22    2.95    0.69
   4   4  23   38.85    2.04
   4   4  23   40.12    1.95
  -4   4  23   42.40    2.01
   4   4  24   38.37    1.96
   4   4  24   38.26    1.88
  -4   4  24   37.99    1.89
   4   4  25   13.23    1.05
   4   4  25   13.05    0.95
  -4   4  25   11.86    0.96
   4   4  26   29.10    1.61
   4   4  26   29.32    1.53
  -4   4  26   30.32    1.56
   4   4  27    3.04    0.55
  -4   4  27    3.90    0.61
   4   4  27    3.58    0.63
   4   4  28    3.07    0.51
  -4   4  28    3.41    0.57
   4   4  28    2.96    0.58
   4   4  29    0.36    0.37
   4   4  29    0.44    0.44
  -4   4  29    0.87    0.40
   4   4  30    2.69    0.43
  -4   4  30    2.53    0.44
   4   4  30    2.81    0.48
   4   4  31   13.16    0.80
  -4   4  31   12.66    0.75
  -4   4  32   10.71    0.63
   5  -4   0  173.78    7.14
   5  -4   1  287.12   10.64
   5  -4  -1  259.36   10.11
   5  -4  -1  288.56   10.62
   5  -4   2  273.34   10.13
   5  -4  -2  275.55   10.03
   5  -4  -3   34.89    2.19
   5  -4  -3   32.82    1.81
   5  -4   3   36.06    2.32
   5  -4  -4   81.34    3.88
   5  -4   4   81.67    4.09
   5  -4  -5  277.08   10.63
   5  -4   5  278.44   10.90
   5  -4   6  659.61   23.77
   5  -4  -6  651.88   23.38
   5  -4   7  124.63    5.72
   5  -4  -7  118.85    5.30
   5  -4  -8   13.10    1.31
   5  -4   8   11.61    1.48
   5  -4  -9   32.86    2.17
   5  -4   9   28.49    2.35
   5  -4 -10  225.20    8.89
   5   4 -10  214.73    8.09
   5  -4  10  227.03    9.44
   5  -4 -11   54.17    3.11
   5   4 -11   51.70    2.47
   5  -4  11   55.77    3.56
   5  -4 -12  122.47    5.58
   5   4 -12  115.12    4.76
   5   4  13   12.92    0.94
   5  -4  13   16.43    1.93
  -5  -4  13   13.76    1.99
   5   4 -13   12.85    1.08
   5   4  14   18.79    1.16
   5  -4  14   17.69    2.05
  -5   4  14   17.71    1.20
  -5  -4  14   16.35    2.15
   5   4 -14   16.88    1.27
   5   4  15   11.90    0.92
  -5   4  15   11.20    0.97
  -5  -4  15    8.37    1.63
   5  -4  15    9.48    1.61
   5   4 -15   10.24    1.01
  -5   4  16    3.13    0.67
   5  -4  16    2.69    1.20
   5   4  16    3.07    0.61
   5   4 -16    3.23    0.71
  -5  -4  16    1.90    1.17
   5  -4  17    5.28    1.41
  -5   4  17    6.26    0.81
   5   4  17    6.62    0.76
  -5  -4  17    4.53    1.41
  -5  -4  18    4.23    1.44
   5  -4  18    5.15    1.40
  -5   4  18    4.77    0.74
   5   4  18    5.28    0.71
  -5  -4  19    1.80    1.12
   5  -4  19    3.12    1.24
  -5   4  19    3.36    0.65
   5   4  19    2.71    0.62
   5   4  20   10.61    0.99
   5   4  20   11.83    0.89
  -5   4  20   11.09    0.97
   5   4  21    1.78    0.53
  -5   4  21    1.91    0.58
   5   4  21    1.29    0.65
   5   4  22    9.64    0.95
   5   4  22    8.24    0.80
  -5   4  22    9.77    0.92
  -5   4 -22    9.39    1.04
   5   4  23    1.39    0.51
  -5   4  23    0.84    0.59
   5   4  23    1.57    0.62
   5   4  24   19.52    1.31
   5   4  24   19.73    1.20
  -5   4  24   20.31    1.26
  -5   4  25    4.24    0.64
   5   4  25    4.70    0.73
   5   4  25    4.94    0.63
   5   4  26    1.35    0.56
   5   4  26    1.72    0.49
  -5   4  26    0.68    0.46
   5   4  27    4.49    0.57
  -5   4  27    4.63    0.61
   5   4  27    4.01    0.65
   5   4  28    8.57    0.77
   5   4  28    7.44    0.68
  -5   4  28    8.67    0.71
   5   4  29   20.95    1.14
   5   4  29   18.10    1.02
  -5   4  29   18.82    1.03
   5   4  30   19.66    1.07
  -5   4  30   20.87    1.04
  -5   4  31    2.30    0.35
   5   4  31    1.80    0.36
   6  -4   0   25.09    1.72
   6  -4   0   28.10    2.04
   6  -4  -1    8.64    1.15
   6  -4   1   10.19    1.26
   6  -4  -1    6.56    0.90
   6  -4   1    9.11    1.06
   6  -4  -2   28.93    1.75
   6  -4   2   29.79    2.14
   6  -4  -2   27.41    2.04
   6  -4  -3   22.20    1.77
   6  -4   3   25.19    1.97
   6  -4  -3   19.54    1.40
   6  -4  -4    6.84    1.06
   6  -4   4    7.45    1.20
   6  -4   5  109.12    5.29
   6  -4  -5  113.22    5.09
   6  -4  -6   32.43    2.25
   6  -4   6   35.60    2.53
   6  -4  -7   49.50    2.92
   6  -4   7   51.84    3.22
   6  -4  -8   41.04    2.59
   6  -4   8   44.42    2.97
  -6   4  -8   38.04    1.91
   6   4  -8   41.62    2.06
   6  -4  -9  195.59    8.00
  -6   4   9  191.27    7.13
  -6   4   9  191.80    6.75
   6  -4   9  204.68    8.53
  -6   4  -9  187.38    7.03
   6  -4 -10  130.31    5.90
  -6   4  10  127.54    5.04
  -6   4  10  132.92    4.71
   6  -4  10  133.47    6.40
  -6   4 -10  123.27    4.95
   6   4 -10  131.36    5.17
   6  -4 -11   47.64    2.97
   6   4  11   46.33    2.11
  -6   4  11   47.99    2.25
  -6   4  11   46.47    1.95
   6  -4  11   51.39    3.42
  -6   4 -11   44.93    2.19
   6   4 -11   45.52    2.33
   6  -4 -12   67.67    3.81
   6   4  12   66.16    2.83
  -6   4  12   67.05    2.95
  -6   4  12   66.96    2.70
  -6   4 -12   66.81    2.92
   6  -4  12   72.33    4.30
   6   4 -12   67.96    3.07
   6   4  13   27.19    1.49
  -6   4  13   27.25    1.58
  -6   4 -13   27.13    1.60
   6  -4  13   31.51    2.70
   6   4 -13   27.09    1.67
  -6  -4  13   29.07    2.85
  -6   4  14   21.20    1.33
   6   4  14   20.05    1.25
  -6  -4  14   19.96    2.38
   6  -4  14   20.43    2.21
   6   4 -14   21.47    1.44
  -6   4 -14   19.46    1.36
   6  -4  15    5.65    1.42
  -6   4  15    7.06    0.85
   6   4  15    6.55    0.74
   6   4 -15    6.60    0.89
  -6   4 -15    5.55    0.85
  -6  -4  15    3.77    1.43
   6   4  16   15.90    1.10
  -6   4  16   15.44    1.14
   6  -4  16   17.20    2.10
  -6  -4  16   13.58    2.08
   6   4 -16   14.40    1.22
  -6   4 -16   13.22    1.22
   6   4  17   65.91    2.91
  -6   4  17   68.82    2.93
  -6  -4  17   68.92    4.69
   6  -4  17   71.79    4.52
   6   4 -17   63.01    2.99
  -6   4 -17   63.54    2.92
   6   4  18   57.87    2.63
  -6   4  18   58.72    2.62
  -6  -4  18   51.75    4.08
  -6   4 -18   56.13    2.64
   6  -4  18   56.18    4.01
   6   4  19  236.30    8.49
  -6   4 -19  225.12    8.44
  -6   4  19  227.23    8.43
   6   4  20   52.82    2.54
  -6   4 -20   52.68    2.54
  -6   4  20   56.78    2.52
  -6   4  21   27.23    1.57
   6   4  21   28.46    1.64
  -6   4 -21   28.67    1.66
  -6   4  22    0.26    0.53
   6   4  22    0.38    0.59
   6   4  23   22.54    1.41
  -6   4  23   20.80    1.30
   6   4  24   29.60    1.66
   6   4  24   30.40    1.54
  -6   4  24   30.29    1.58
   6   4  25    8.55    0.74
  -6   4  25    8.24    0.75
   6   4  25    7.99    0.85
   6   4  26    0.05    0.39
  -6   4  26   -0.10    0.43
   6   4  26    0.16    0.52
   6   4  27    6.21    0.61
  -6   4  27    7.29    0.67
   6   4  27    6.99    0.75
  -6   4  28    5.47    0.56
   6   4  28    4.63    0.65
   6   4  29   12.74    0.85
  -6   4  29   11.51    0.75
  -6   4  30    0.71    0.32
   6   4  30    0.29    0.35
  -6   4  31   15.82    0.78
   7  -4   0   25.53    1.78
   7  -4   0   29.27    2.17
   7  -4  -1    6.33    1.11
   7  -4  -1    6.01    0.89
   7  -4   1    5.33    0.93
   7  -4   1    5.44    1.07
   7  -4   2   38.36    2.43
   7  -4   2   46.82    2.85
   7  -4  -2   43.24    2.72
   7  -4  -2   40.69    2.30
   7  -4   3   16.53    1.56
   7  -4  -3   17.94    1.67
   7  -4   3   18.74    1.78
   7  -4  -4   19.22    1.73
   7  -4   4   21.87    1.95
  -7   4   4   19.69    0.94
  -7   4  -4   20.32    1.19
   7  -4   5  173.89    7.40
   7  -4  -5  193.16    7.71
   7  -4   5  178.42    7.79
  -7   4   5  177.44    6.32
  -7   4  -5  172.96    6.57
   7   4  -5  191.85    6.83
   7  -4  -6  107.06    5.14
   7  -4   6  109.55    5.41
  -7   4   6  106.72    3.97
  -7   4  -6  106.85    4.22
   7   4  -6  120.73    4.49
   7  -4  -7    2.91    0.88
   7  -4   7    4.48    1.11
  -7   4   7    3.02    0.44
  -7   4  -7    2.42    0.50
   7   4  -7    2.84    0.74
   7   4   7    3.70    0.69
   7   4   8   18.47    1.14
   7  -4  -8   19.04    1.75
  -7   4   8   20.25    1.02
   7  -4   8   17.33    1.95
  -7   4  -8   20.10    1.05
  -7   4  -8   18.85    1.23
   7   4  -8   23.09    1.46
   7   4   8   19.80    1.29
   7  -4  -9    4.44    1.04
   7   4   9    4.83    0.63
  -7   4   9    5.01    0.74
  -7   4   9    4.67    0.57
   7  -4   9    5.45    1.24
  -7   4  -9    5.00    0.79
   7   4  -9    5.74    0.85
   7  -4 -10    6.52    1.17
   7  -4  10    6.09    1.40
  -7   4  10    5.55    0.79
   7   4  10    6.39    0.69
  -7   4 -10    6.20    0.82
  -7   4  10    6.29    0.67
   7   4  11   12.69    0.97
   7  -4 -11   15.56    1.70
   7  -4  11   13.50    1.85
  -7   4  11   13.23    0.95
  -7   4  11   14.84    1.12
  -7   4 -11   12.93    1.09
   7   4 -11   14.81    1.22
   7  -4 -12   89.09    4.69
   7   4  12   84.56    3.53
  -7   4  12   90.73    3.66
  -7   4  12   87.28    3.45
   7  -4  12   88.88    5.03
  -7   4 -12   83.60    3.55
   7   4 -12   87.82    3.82
   7  -4 -13   12.93    1.67
   7   4  13   13.78    1.05
  -7   4  13   12.30    1.05
   7  -4  13   16.15    2.03
  -7   4  13   13.13    1.01
  -7   4 -13   13.69    1.13
   7   4 -13   11.33    1.15
   7  -4  14    2.15    1.17
  -7   4  14    1.17    0.63
   7   4  14    1.04    0.56
   7   4 -14    1.78    0.75
  -7   4 -14    1.30    0.67
  -7  -4  14    2.23    1.25
   7   4  15   27.70    1.57
  -7   4  15   28.27    1.61
   7  -4  15   29.05    2.73
  -7   4 -15   25.31    1.57
   7   4 -15   25.84    1.69
  -7  -4  15   24.12    2.77
   7   4  16   36.48    1.89
  -7   4  16   39.08    1.93
  -7   4 -16   36.95    1.94
   7   4 -16   34.18    2.02
  -7  -4  16   35.19    3.27
   7   4  17   70.62    3.07
  -7  -4  17   73.43    4.88
  -7   4 -17   64.89    2.99
   7   4 -17   68.50    3.16
  -7   4  17   70.95    3.04
   7   4  18  129.33    4.91
  -7   4  18  123.22    4.83
  -7   4 -18  123.82    4.84
   7   4 -18  112.58    4.90
   7   4  19  174.29    6.50
  -7   4  19  165.38    6.40
  -7   4 -19  170.51    6.42
   7   4  20  135.77    5.28
  -7   4  20  132.74    5.18
   7   4  21   41.87    2.16
  -7   4  21   44.36    2.11
   7   4  22   17.67    1.27
  -7   4  22   19.42    1.22
  -7   4  23    7.87    0.79
   7   4  23    7.60    0.88
   7   4  24    9.52    0.93
  -7   4  24    8.93    0.79
   7   4  25   24.78    1.48
  -7   4  25   26.95    1.38
   7   4  26    9.72    0.89
  -7   4  26    8.94    0.73
   7   4  27   43.60    2.02
  -7   4  27   43.38    1.88
   7   4  28   41.39    1.86
  -7   4  28   40.23    1.73
   7   4  29   13.56    0.86
  -7   4  29   14.54    0.79
   7   4  30   35.38    1.50
  -7   4  30   33.89    1.41
   8  -4   0   53.34    3.31
  -8   4   0   57.96    2.20
   8   4   0   53.29    2.51
   8  -4   0   55.15    2.98
   8  -4  -1   14.13    1.61
   8  -4   1   14.39    1.64
  -8   4   1   15.20    0.81
   8   4   1   14.11    1.05
   8  -4  -1   16.17    1.41
   8  -4   1   14.48    1.44
   8  -4   2   66.85    3.56
   8  -4  -2   74.00    3.95
   8  -4   2   72.36    3.99
  -8   4   2   67.67    2.67
  -8   4  -2   75.00    2.70
   8   4  -2   75.53    3.06
   8   4   2   66.53    2.98
   8  -4  -2   64.37    3.35
   8  -4   3   54.71    3.17
   8  -4  -3   58.39    3.45
   8  -4   3   58.54    3.55
  -8   4  -3   62.24    2.33
  -8   4  -3   57.43    2.54
   8   4  -3   62.97    2.72
   8   4   3   55.47    2.60
  -8   4  -4    0.43    0.54
   8  -4  -4    0.18    0.69
   8  -4   4    0.10    0.76
   8  -4   4    0.38    0.68
   8   4   4   -0.11    0.39
  -8   4   4    1.55    0.39
  -8   4  -4    0.58    0.37
  -8   4  -4    0.67    0.57
   8   4  -4    0.89    0.57
   8   4   4   -0.03    0.52
  -8   4  -5    2.53    0.68
   8  -4  -5    2.43    0.89
   8  -4   5    2.79    0.92
   8   4   5    2.16    0.48
  -8   4   5    2.10    0.45
  -8   4  -5    2.60    0.44
  -8   4  -5    2.74    0.64
   8   4  -5    3.10    0.69
   8  -4   5    0.95    0.83
   8   4   5    2.29    0.60
   8   4   6   11.63    0.92
   8  -4  -6   12.50    1.51
   8  -4   6   13.72    1.71
   8  -4   6   12.31    1.47
  -8   4   6   13.09    0.84
  -8   4  -6   14.66    0.83
  -8   4  -6   13.40    1.01
   8   4  -6   15.89    1.23
   8   4   6   12.85    1.04
  -8   4  -6   14.44    1.13
   8   4   7   10.70    0.88
   8  -4  -7   10.03    1.40
   8  -4   7   11.03    1.59
   8  -4   7    9.69    1.39
  -8   4   7   10.67    0.77
  -8   4  -7   12.01    0.74
  -8   4  -7   10.21    0.97
   8   4  -7   11.80    1.11
   8   4   7   12.26    1.03
  -8   4  -7   11.47    1.05
   8   4   8   56.09    2.50
   8  -4   8   55.51    3.32
   8  -4  -8   55.40    3.41
   8  -4   8   58.30    3.71
  -8   4   8   53.27    2.31
  -8   4  -8   61.25    2.29
  -8   4  -8   54.49    2.48
   8   4  -8   59.01    2.80
   8   4   8   55.27    2.61
   8   4   9   23.93    1.36
   8  -4   9   21.03    2.01
   8  -4  -9   20.93    1.97
  -8   4   9   22.90    1.45
  -8   4   9   21.64    1.25
   8  -4   9   25.58    2.38
   8   4  -9   23.31    1.58
  -8   4  -9   21.46    1.35
   8   4   9   24.85    1.50
   8   4  10  104.94    4.19
   8  -4 -10  109.94    5.36
   8  -4  10  104.18    5.20
  -8   4  10  109.99    4.32
  -8   4  10  105.09    4.07
   8  -4  10  102.80    5.60
  -8   4 -10  104.40    4.18
   8   4 -10  100.92    4.44
   8   4  10  104.95    4.31
   8  -4 -11   12.17    1.60
   8   4  11   11.78    0.97
   8  -4  11   12.20    1.78
   8  -4  11   10.52    1.56
  -8   4  11   12.31    1.01
  -8   4  11   12.41    1.06
  -8   4 -11   10.64    1.01
   8   4 -12   17.47    1.40
   8   4  12   16.90    1.17
   8  -4 -12   19.15    2.00
   8  -4  12   19.31    2.22
  -8   4  12   16.72    1.24
  -8   4  12   16.42    1.19
  -8   4 -12   16.04    1.22
   8  -4 -13   61.34    3.92
   8   4  13   64.77    2.85
  -8   4  13   68.90    2.94
  -8   4 -13   63.79    2.84
   8   4 -13   60.27    2.99
   8   4  14   24.07    1.49
   8  -4  14   23.00    2.23
  -8   4  14   25.45    1.53
  -8   4 -14   23.26    1.48
   8   4 -14   24.09    1.63
   8   4  15   70.21    3.05
   8  -4  15   68.28    4.04
  -8   4  15   75.36    3.08
  -8   4 -15   67.00    2.99
   8   4 -15   64.84    3.14
  -8  -4  15   61.89    4.67
   8   4  16  131.41    5.00
   8  -4  16  116.17    6.00
  -8   4  16  128.67    4.96
  -8   4 -16  128.18    4.92
   8   4 -16  115.45    5.05
  -8  -4  16  128.32    7.12
  -8   4  17    5.89    0.83
   8   4  17    5.82    0.84
  -8   4 -17    6.17    0.87
   8   4 -17    6.09    0.88
   8   4  18   18.46    1.32
  -8   4  18   16.61    1.16
   8   4 -18   14.84    1.29
   8   4  19   29.76    1.69
  -8   4  19   28.70    1.59
   8   4  20   53.47    2.50
  -8   4  20   50.20    2.36
   8   4  21   79.14    3.37
  -8   4  21   76.18    3.21
   8   4  22   47.20    2.32
  -8   4  22   48.76    2.21
   8   4  23   12.03    1.01
  -8   4  23   10.99    0.87
   8   4  24   10.43    0.97
  -8   4  24   11.53    0.85
   8   4  25  111.29    4.29
  -8   4  25  106.77    4.12
   8   4  26   66.83    2.83
  -8   4  26   67.10    2.67
   8   4  27   78.18    3.17
  -8   4  27   79.08    3.02
  -8   4  28    4.71    0.45
   8   4  28    4.10    0.53
   8   4  29   22.72    1.11
  -8   4  29   23.46    1.01
   8  -4  29   20.92    0.98
  -8   4 -30   70.94    2.77
   9  -4   0    5.03    1.15
   9  -4   0    5.09    1.01
   9   4   0    4.26    0.63
  -9   4   0    5.75    0.55
   9   4   0    4.03    0.70
   9   4  -1   75.97    3.28
   9   4   1   81.85    3.31
   9  -4  -1   77.44    4.33
   9  -4   1   77.40    4.37
  -9   4   1   83.40    3.08
  -9   4  -1   84.29    3.08
   9   4  -1   79.97    3.38
   9   4   1   76.70    3.37
   9  -4   1   79.61    3.99
   9   4  -2   52.32    2.40
   9   4   2   49.05    2.35
   9  -4  -2   55.81    3.42
   9  -4   2   51.25    3.40
  -9   4   2   60.49    2.21
  -9   4  -2   55.35    2.16
   9   4  -2   58.35    2.56
   9   4   2   49.31    2.45
   9  -4   2   46.66    2.96
   9   4   3   21.10    1.25
   9  -4  -3   19.80    1.98
   9  -4   3   22.17    2.10
  -9   4  -3   24.34    1.12
   9   4  -3   22.10    1.43
   9   4   3   18.45    1.31
   9  -4   3   20.44    1.79
   9  -4  -4    3.49    1.01
   9  -4   4    2.68    0.98
   9  -4   4    3.12    0.99
   9   4   4    3.05    0.59
  -9   4  -4    3.99    0.50
   9   4  -4    3.41    0.73
   9   4   4    2.70    0.63
   9  -4   5   16.05    1.68
   9   4   5   17.91    1.18
   9  -4  -5   16.01    1.79
   9  -4   5   16.85    1.92
  -9   4   5   18.07    1.04
  -9   4  -5   20.97    1.00
   9   4  -5   17.98    1.35
   9   4   5   16.39    1.22
   9  -4   6   17.09    1.76
   9   4   6   16.29    1.18
   9  -4  -6   22.57    2.03
   9  -4   6   18.86    2.04
  -9   4   6   21.00    1.16
  -9   4  -6   21.70    1.05
  -9   4  -6   18.69    1.26
   9   4  -6   21.54    1.46
   9   4   6   16.89    1.26
  -9   4  -6   17.45    1.28
   9  -4   7   24.40    2.10
   9   4   7   24.70    1.45
   9  -4  -7   24.52    2.19
   9  -4   7   22.05    2.27
  -9   4   7   25.88    1.39
  -9   4  -7   30.41    1.28
  -9   4  -7   25.12    1.49
   9   4  -7   26.32    1.71
   9   4   7   24.67    1.55
  -9   4  -7   25.77    1.58
   9  -4   8    2.04    1.14
  -9   4  -8    1.02    0.72
   9  -4  -8    2.64    0.97
   9  -4   8    2.25    1.03
   9   4   8    2.24    0.56
  -9   4   8    1.40    0.68
  -9   4   8    2.58    0.67
  -9   4  -8    2.45    0.69
   9   4  -8    1.63    0.76
   9   4   8    1.62    0.63
   9   4   9   18.43    1.21
   9  -4  -9   16.87    1.89
   9  -4   9   17.28    2.10
  -9   4   9   17.87    1.29
   9  -4   9   15.98    1.79
  -9   4  -9   18.36    1.25
  -9   4   9   15.78    1.20
   9   4  -9   20.13    1.48
   9   4   9   17.27    1.30
   9  -4  10   78.82    4.31
   9   4  10   79.45    3.34
   9  -4 -10   76.21    4.42
  -9   4  10   80.91    3.44
  -9   4  10   79.67    3.26
  -9   4 -10   80.14    3.33
   9   4 -10   74.97    3.55
   9   4  10   79.52    3.46
   9  -4  11   35.60    2.71
   9   4  11   35.25    1.86
   9  -4 -11   33.59    2.76
  -9   4  11   36.68    1.98
  -9   4  11   37.60    1.88
  -9   4 -11   36.29    1.88
   9   4  11   34.19    1.97
   9  -4 -12    1.46    0.95
   9   4  12    1.41    0.64
  -9   4  12    2.18    0.67
  -9   4 -12    2.33    0.77
   9   4  12    1.00    0.64
   9   4  13   24.62    1.54
   9  -4 -13   28.75    2.52
  -9   4 -13   25.72    1.56
   9   4 -13   24.27    1.68
  -9   4  13   26.84    1.59
   9  -4  14   50.17    3.30
   9   4  14   50.58    2.40
  -9   4  14   48.00    2.37
   9  -4  14   48.37    3.69
  -9   4 -14   51.01    2.36
   9   4 -14   46.83    2.50
   9   4  15   22.63    1.42
  -9   4  15   20.68    1.37
   9   4 -15   17.95    1.41
  -9   4 -15   22.63    1.42
   9   4  16    2.57    0.69
  -9   4 -16    2.85    0.80
   9   4 -16    2.91    0.79
  -9   4  17    8.84    0.87
   9   4  17    6.84    0.89
   9   4 -17    6.90    0.96
  -9   4  18    2.61    0.68
   9   4  18    1.90    0.69
   9   4 -18    2.77    0.76
   9   4  19   92.86    3.76
  -9   4  19   88.23    3.60
   9   4 -19   82.82    3.72
   9   4  20    2.50    0.72
  -9   4  20    2.94    0.63
  -9   4  21    0.35    0.45
   9   4  21    0.34    0.60
  -9   4  22    1.22    0.49
   9   4  22    1.18    0.60
   9   4  23   30.02    1.62
  -9   4  23   27.79    1.43
   9   4  24   20.99    1.34
  -9   4  24   24.32    1.22
   9   4  25   52.63    2.28
  -9   4  25   49.05    2.09
   9   4  26   37.63    1.74
  -9   4  26   35.25    1.56
  -9   4  27    1.16    0.32
   9   4  27    0.65    0.41
   9   4  28   12.81    0.79
  -9   4  28   11.94    0.65
   9  -4  28   13.11    0.72
  -9   4 -28   13.04    0.92
  10   4   0   59.86    2.67
  10  -4   0   63.18    3.79
 -10   4   0   63.05    2.47
  10   4   0   54.76    2.70
  10   4  -1   71.84    3.14
  10   4   1   73.36    3.14
 -10   4   1   73.13    2.93
 -10   4  -1   75.50    2.96
  10  -4  -1   71.55    4.24
  10  -4   1   76.28    4.35
  10   4  -1   80.24    3.25
  10   4   1   72.57    3.22
  10   4  -2   15.93    1.15
  10   4   2   15.77    1.15
  10  -4  -2   16.35    1.88
  10  -4   2   17.25    1.92
 -10   4   2   16.26    1.04
 -10   4  -2   17.95    1.02
  10   4  -2   17.40    1.25
  10   4   2   16.23    1.22
  10  -4   2   19.79    1.78
  10   4  -3   16.53    1.13
  10   4   3   14.41    1.08
  10  -4  -3   17.58    1.90
  10  -4   3   18.82    2.00
 -10   4   3   15.16    1.06
 -10   4  -3   15.19    0.95
  10   4  -3   16.80    1.24
  10   4   3   14.49    1.16
  10  -4   3   16.21    1.67
  10   4  -4  136.63    5.36
  10   4   4  141.44    5.37
  10  -4  -4  137.28    6.59
  10  -4   4  134.04    6.71
 -10   4  -4  148.15    5.14
  10   4  -4  141.51    5.55
  10   4   4  129.19    5.40
  10  -4   4  130.86    6.21
  10   4  -5  164.31    6.27
  10   4   5  162.20    6.26
  10  -4   5  160.31    7.70
  10  -4  -5  154.86    7.44
 -10   4  -5  182.26    6.04
  10   4  -5  165.10    6.48
  10   4   5  154.03    6.32
  10  -4   5  157.75    7.17
  10   4  -6  116.84    4.74
  10   4   6  126.77    4.78
  10  -4  -6  107.80    5.79
 -10   4   6  115.72    4.60
 -10   4  -6  133.08    4.52
  10  -4   6  112.12    6.09
  10   4  -6  119.19    4.97
  10   4   6  114.92    4.82
  10  -4   6  115.49    5.65
  10   4   7   48.81    2.32
  10  -4  -7   46.46    3.25
 -10   4   7   44.54    2.26
 -10   4  -7   56.10    2.14
  10   4  -7   47.57    2.53
  10   4   7   45.20    2.37
  10  -4   7   49.13    3.15
  10   4  -7   49.26    2.33
  10  -4  -8    3.21    1.09
  10   4  -8    3.24    0.71
  10  -4   8    2.76    1.08
  10   4   8    3.69    0.67
 -10   4   8    3.54    0.81
 -10   4   8    2.99    0.82
  10   4  -8    5.74    0.94
  10   4   8    4.08    0.80
  10  -4   9    1.92    0.98
  10  -4  -9    1.29    0.92
 -10   4   9    2.69    0.77
  10   4  -9    2.04    0.67
 -10   4   9    1.77    0.78
  10   4  -9    2.34    0.80
  10   4   9    1.93    0.66
  10   4   9    0.97    0.67
  10   4  10   13.55    1.10
  10  -4 -10   13.29    1.74
 -10   4  10   14.47    1.19
 -10   4  10   12.21    1.17
  10  -4  10   12.39    1.65
  10   4 -10   14.05    1.26
  10   4  10   13.08    1.20
 -10   4 -10   13.21    1.17
  10   4 -10   12.16    1.13
  10  -4  11   27.26    2.36
 -10   4  11   32.85    1.74
  10   4  11   30.64    1.68
  10  -4 -11   25.80    2.46
  10  -4  11   25.80    2.64
  10   4 -11   27.33    1.78
  10   4  11   28.83    1.73
 -10   4 -11   27.04    1.69
  10   4 -11   25.78    1.68
  10  -4 -12    8.21    1.49
  10   4 -12    6.92    0.94
  10  -4  12    7.50    1.59
  10   4  12    7.47    0.91
 -10   4  12    7.87    0.95
  10   4  12    7.37    0.95
  10   4  13   14.89    1.18
 -10   4  13   13.27    1.13
  10   4  13   12.72    1.16
  10   4 -13   12.41    1.19
  10   4  14   20.14    1.39
 -10   4  14   20.76    1.37
  10   4 -14   21.34    1.50
  10   4  14   20.93    1.44
  10   4 -14   18.14    1.43
  10   4  15   12.41    1.10
 -10   4  15   12.93    1.06
  10   4 -15   10.78    1.15
  10   4 -15   11.73    1.19
  10   4  16   33.98    1.84
 -10   4  16   32.35    1.73
  10   4 -16   30.70    1.86
  10   4  17   31.39    1.79
 -10   4  17   32.22    1.70
  10   4 -17   28.54    1.78
  10   4  18   17.14    1.25
 -10   4  18   17.20    1.13
  10   4 -18   14.53    1.24
  10   4  19   18.32    1.30
 -10   4  19   18.19    1.17
  10   4 -19   17.33    1.30
 -10   4  20    5.77    0.69
  10   4  20    5.88    0.82
  10   4  21   33.43    1.78
 -10   4  21   33.70    1.63
 -10   4  22    6.26    0.63
  10   4  22    6.11    0.78
  10   4  23   11.55    0.97
 -10   4  23   13.41    0.83
  10   4  24   15.14    1.04
 -10   4  24   14.73    0.86
  10   4  25   10.04    0.82
 -10   4  25    9.80    0.63
  10   4  26    7.88    0.69
  10  -4  26    8.64    0.66
 -10   4 -26    9.09    0.83
 -10   4 -27    4.84    0.65
  10   4  27    5.18    0.53
  10  -4  27    5.63    0.50
  11  -4   0    0.12    0.99
  11   4   0    1.32    0.63
 -11   4   0    1.13    0.73
  11   4  -1   72.47    3.11
  11   4   1   70.53    3.11
  11  -4  -1   69.55    4.27
  11  -4   1   67.53    4.24
 -11   4   1   76.69    3.00
 -11   4  -1   72.63    2.98
  11   4   1   65.83    3.15
  11   4  -2  100.25    4.20
  11   4   2  103.40    4.21
  11  -4  -2   95.91    5.38
  11  -4   2  107.87    5.63
 -11   4   2  103.11    4.08
 -11   4  -2  112.29    4.09
  11   4  -2  104.05    4.27
  11   4   2  100.52    4.28
  11   4  -3   50.28    2.50
  11   4   3   55.30    2.53
  11  -4   3   51.33    3.62
 -11   4   3   52.22    2.42
 -11   4  -3   59.17    2.44
  11  -4  -3   56.16    3.62
  11   4  -3   52.95    2.59
  11   4   3   51.41    2.58
  11   4  -4  351.36   12.38
  11   4   4  361.97   12.40
  11  -4  -4  344.62   13.87
 -11   4  -4  392.31   12.22
  11   4  -4  361.13   12.53
  11  -4   4  356.67   13.47
  11   4   4  338.33   12.44
  11   4  -5  124.86    5.24
  11   4   5  134.63    5.27
  11  -4  -5  132.03    6.58
 -11   4  -5  148.49    5.12
  11   4  -5  133.24    5.43
  11   4   5  129.60    5.33
  11  -4   5  131.90    6.20
  11   4  -6  208.19    7.77
  11   4   6  206.28    7.73
  11  -4  -6  196.13    9.06
  11   4  -6  195.44    7.88
  11   4   6  188.75    7.78
  11  -4   6  201.60    8.76
  11   4   7   12.23    1.07
  11  -4  -7    9.86    1.56
  11  -4   7   13.79    1.68
 -11   4   7   11.94    1.12
 -11   4   7    9.48    1.11
  11   4  -7   11.24    1.19
  11   4   7   13.50    1.21
  11   4  -7   11.30    1.06
  11   4   8   12.58    1.10
  11  -4  -8   11.18    1.66
  11  -4   8   15.59    2.00
  11  -4   8   13.85    1.71
 -11   4   8   14.70    1.20
 -11   4   8   10.49    1.20
  11   4  -8   16.96    1.35
  11   4   8   13.67    1.22
  11   4  -8   13.59    1.12
  11   4   9    9.42    0.96
  11  -4  -9    8.90    1.51
  11  -4   9    8.78    1.61
  11   4  -9    9.35    1.02
 -11   4   9   10.89    1.08
  11   4  -9    9.73    1.11
  11  -4   9    8.46    1.47
  11   4   9    9.28    1.10
  11   4  10   38.48    1.95
 -11   4  10   34.98    1.93
  11   4 -10   31.67    1.96
  11   4  10   36.12    2.01
  11   4 -10   31.67    1.92
  11   4 -11    1.68    0.75
  11   4  11    0.79    0.65
 -11   4  11    1.57    0.69
  11   4 -11    1.51    0.80
  11   4  11    1.63    0.74
  11   4  12   70.51    3.08
 -11   4  12   74.80    3.12
  11   4 -12   61.97    3.14
  11   4  12   68.40    3.12
  11   4 -12   65.57    3.13
  11   4  13   23.22    1.47
 -11   4  13   21.35    1.39
  11   4  13   22.34    1.50
  11   4 -13   20.72    1.55
  11   4  14   14.96    1.22
 -11   4  14   16.22    1.18
  11   4  14   16.37    1.26
  11   4 -14   13.93    1.29
 -11   4 -14   15.58    1.25
 -11   4 -15    0.52    0.70
  11   4 -15    1.52    0.76
  11   4  15    0.20    0.62
 -11   4  15    0.82    0.56
  11   4 -15    0.69    0.73
  11   4  15    0.23    0.63
  11   4  16   33.53    1.79
 -11   4  16   33.50    1.68
  11   4 -16   27.26    1.74
 -11   4 -16   26.53    1.69
 -11   4  17    3.12    0.61
  11   4  17    2.56    0.72
  11   4 -17    2.82    0.80
 -11   4  18    5.78    0.69
  11   4  18    5.96    0.84
  11   4 -18    6.70    0.87
  11   4  19    8.74    0.92
  11   4 -19    8.28    0.91
 -11   4  19    7.82    0.74
  11   4  20   66.37    2.82
 -11   4  20   61.57    2.60
 -11   4 -20   62.87    2.82
 -11   4 -21    4.83    0.82
  11   4  21    4.67    0.74
 -11   4  21    5.15    0.56
 -11   4 -22    5.98    0.82
 -11   4  22    6.98    0.58
  11   4  22    6.47    0.76
 -11   4 -23    0.78    0.61
 -11   4  23    1.30    0.33
  11   4  23    0.86    0.50
 -11   4 -24    4.17    0.71
  11   4  24    5.32    0.63
  11  -4  24    5.30    0.62
 -11   4 -25    0.04    0.49
  11   4  25    1.11    0.43
  11  -4  25    0.47    0.42
  11   4  26    0.86    0.36
  11  -4  26    0.71    0.36
  12   4   0  212.25    7.69
  12  -4   0  203.38    9.17
 -12   4   0  198.62    7.60
  12   4  -1   70.63    3.02
  12   4   1   71.04    3.04
  12  -4  -1   65.62    4.18
 -12   4   1   61.45    2.92
 -12   4  -1   62.00    2.94
  12   4  -2  193.91    7.29
  12   4   2  202.39    7.32
  12  -4  -2  180.29    8.63
 -12   4   2  188.69    7.17
 -12   4  -2  191.24    7.20
  12   4  -2  189.86    7.26
  12   4   2  194.61    7.34
  12   4  -3  196.09    6.90
  12   4   3  203.63    6.93
  12  -4  -3  183.88    8.31
 -12   4   3  177.52    6.75
  12   4  -3  191.68    6.93
  12   4   3  185.03    6.93
  12   4  -4  171.49    6.14
  12   4   4  164.34    6.13
  12  -4  -4  160.09    7.47
 -12   4   4  157.78    6.00
  12   4  -4  168.23    6.19
  12   4   4  165.57    6.18
  12   4  -5   64.67    2.76
  12   4   5   58.63    2.71
  12  -4  -5   58.17    3.80
 -12   4  -5   49.07    2.65
  12   4  -5   61.27    2.82
 -12   4   5   54.92    2.62
  12   4   5   55.04    2.77
  12  -4   5   57.74    3.91
  12   4  -6   12.41    1.15
  12   4   6   16.26    1.23
 -12   4   6   14.63    1.21
 -12   4  -6   10.26    1.14
  12   4  -6   14.88    1.26
  12   4   6   13.44    1.25
 -12   4   7   21.48    1.51
  12   4   7   22.16    1.44
  12   4  -7   19.43    1.50
  12   4   7   20.94    1.52
  12   4  -7   20.09    1.45
  12   4   8   16.83    1.28
 -12   4   8   17.87    1.32
  12   4  -8   15.81    1.36
  12   4   8   15.54    1.33
  12   4  -8   15.05    1.28
  12   4   9   53.72    2.54
 -12   4   9   53.19    2.58
  12   4  -9   51.23    2.67
  12   4   9   53.45    2.66
  12   4  -9   52.56    2.63
  12   4  10   36.35    1.94
 -12   4  10   34.91    1.88
  12   4 -10   30.43    1.94
  12   4  10   33.76    2.02
  12   4 -10   32.66    1.95
  12   4  11   12.03    1.08
  12   4 -11   10.29    1.12
 -12   4  11    9.75    0.99
  12   4 -11    9.75    1.12
  12   4  11   10.16    1.12
  12   4  12   31.32    1.80
 -12   4  12   34.14    1.79
  12   4 -12   30.94    1.88
  12   4  12   31.45    1.88
  12   4 -12   29.75    1.88
  12   4  13   49.79    2.36
 -12   4  13   48.26    2.25
  12   4 -13   45.29    2.38
  12   4  13   46.23    2.35
  12   4 -13   42.35    2.37
  12   4  14   13.34    1.12
  12   4 -14   10.73    1.16
 -12   4  14   11.93    0.99
  12   4  14   11.59    1.10
  12   4  15   36.12    1.94
 -12   4  15   34.83    1.76
  12   4  15   34.31    1.88
  12   4  16    5.00    0.80
 -12   4  16    5.03    0.67
  12   4 -16    4.53    0.86
  12   4  16    5.15    0.79
 -12   4  17    9.05    0.78
  12   4  17    9.01    0.93
  12   4 -17    8.36    0.97
  12   4  18    1.68    0.61
 -12   4  18    2.55    0.51
  12   4 -18    2.09    0.67
  12   4  19    5.00    0.77
 -12   4  19    5.13    0.55
  12   4 -19    5.21    0.77
  12   4  20    2.51    0.61
  12   4  21    1.60    0.56
  12   4  22   16.44    1.08
  12  -4  22   17.18    1.04
  12   4  23    4.25    0.59
  12  -4  23    4.80    0.59
  12   4  24    2.24    0.48
  12  -4  24    2.16    0.46
  12   4  25    0.95    0.35
  12  -4  25    1.04    0.36
  13   4   0    1.92    0.78
 -13   4   0   -0.43    0.92
  13   4  -1   34.42    1.95
  13   4   1   38.30    2.01
 -13   4  -1   32.03    1.94
  13   4  -2   61.79    2.91
  13   4   2   61.33    2.90
 -13   4  -2   64.10    2.91
  13   4  -3   70.43    3.20
  13   4   3   74.06    3.21
 -13   4  -3   72.12    3.19
  13   4  -3   65.40    3.12
  13   4   3   71.83    3.29
  13   4  -4    0.08    0.69
  13   4   4    1.01    0.71
 -13   4  -4    0.26    0.90
  13   4  -4    0.38    0.65
  13   4   4    0.68    0.81
  13   4  -5   42.86    2.28
  13   4   5   44.40    2.25
 -13   4  -5   45.77    2.30
  13   4  -5   44.98    2.30
 -13   4   5   44.09    2.30
  13   4   5   42.38    2.35
  13   4   6   24.33    1.58
 -13   4   6   25.29    1.61
  13   4  -6   25.27    1.64
  13   4   6   26.31    1.71
  13   4  -6   25.66    1.64
  13   4   7   26.20    1.62
 -13   4   7   28.85    1.69
  13   4  -7   25.73    1.71
  13  -4   7   27.53    1.44
  13   4   7   26.42    1.74
  13   4  -7   26.97    1.70
  13   4  -8    2.80    0.78
  13   4   8    2.02    0.72
 -13   4   8    3.11    0.75
  13   4  -8    4.06    0.87
  13  -4   8    4.22    0.65
  13   4   8    3.28    0.88
  13   4   9    5.64    0.88
 -13   4   9    6.91    0.85
  13   4  -9    7.02    0.99
  13   4  -9    6.55    0.97
  13  -4   9    6.05    0.76
  13   4   9    7.04    1.06
  13   4  10  109.93    4.50
 -13   4  10  111.83    4.46
  13   4 -10  107.61    4.59
  13   4  10  116.36    4.67
  13   4 -10  109.09    4.61
  13   4  11   18.92    1.37
 -13   4  11   21.70    1.34
  13   4 -11   20.25    1.50
  13   4  11   21.03    1.52
  13   4 -11   21.90    1.55
  13   4  12   74.89    3.26
 -13   4  12   76.58    3.15
  13   4 -12   69.87    3.32
  13   4  12   74.99    3.35
  13   4 -12   74.81    3.39
  13   4  13   46.97    2.26
 -13   4  13   44.66    2.09
  13   4 -13   41.98    2.28
  13   4  13   47.14    2.29
  13   4 -13   44.17    2.37
  13   4  14   19.61    1.32
  13   4 -14   17.84    1.35
 -13   4  14   19.49    1.16
  13   4  14   18.29    1.31
  13   4 -14   16.68    1.37
  13   4  15    4.08    0.75
 -13   4  15    4.96    0.62
  13   4  15    3.34    0.72
  13   4  16    2.52    0.69
  13   4 -16    3.03    0.77
  13  -4  16    3.33    0.69
  13   4  16    3.31    0.66
  13   4  17    0.79    0.60
  13   4 -17    0.98    0.63
  13  -4  17    1.48    0.61
  13   4  18    2.00    0.62
  13   4 -18    1.64    0.60
  13  -4  18    3.18    0.66
  13   4  19    0.03    0.53
  13  -4  19    1.95    0.60
  13   4  20   14.99    1.02
  13  -4  20   15.50    0.99
  13   4  21    5.20    0.64
  13   4  22    1.83    0.46
  13   4  23    6.31    0.57
  13  -4  23    6.74    0.60
  13   4  24    9.38    0.64
  13  -4  24   11.14    0.67
  14   4   0    0.33    0.69
  14   4  -1   23.78    1.61
  14   4   1   25.95    1.62
  14   4  -2   23.74    1.58
  14   4   2   21.64    1.50
  14   4  -3   27.86    1.67
  14   4   3   26.12    1.63
  14   4  -3   23.19    1.50
  14   4  -4   38.90    2.11
  14   4   4   39.51    2.13
 -14   4   4   38.07    2.06
  14   4  -4   37.40    2.01
  14   4   4   42.13    2.24
  14   4  -5    2.94    0.81
  14   4   5    2.72    0.76
 -14   4   5    2.53    0.70
  14   4  -5    4.39    0.79
  14   4   5    2.98    0.86
  14   4  -6    6.94    0.95
  14   4   6    6.13    0.89
 -14   4   6    6.92    0.88
  14   4  -6    6.17    0.89
  14   4   6    5.95    1.01
  14   4   7   21.36    1.47
 -14   4   7   20.93    1.37
  14   4  -7   22.04    1.47
  14   4   7   22.62    1.59
  14   4  -7   20.54    1.49
  14   4   8   21.81    1.46
 -14   4   8   20.57    1.33
  14   4  -8   20.79    1.48
  14  -4   8   23.31    1.28
  14   4   8   23.20    1.60
  14   4  -8   20.35    1.51
  14   4   9   20.38    1.45
 -14   4   9   23.06    1.37
  14  -4   9   24.08    1.31
  14   4   9   23.22    1.61
  14   4  -9   23.62    1.59
  14   4  -9   21.87    1.50
  14   4  10   57.10    2.60
  14   4 -10   53.72    2.64
  14  -4  10   54.82    2.38
  14   4  10   56.92    2.69
  14   4 -10   52.66    2.67
  14   4 -11    7.91    1.03
  14   4  11    7.44    0.90
  14   4 -11    6.80    0.97
  14  -4  11    8.56    0.81
  14   4  11    7.58    0.99
  14   4 -12    3.03    0.84
  14   4  12    2.85    0.72
  14   4 -12    1.80    0.73
  14  -4  12    2.38    0.64
  14   4  12    2.13    0.78
  14   4  13   23.39    1.44
  14   4 -13   23.09    1.52
  14  -4  13   24.85    1.35
  14   4  13   25.02    1.51
  14   4 -13   19.12    1.50
  14   4  14  100.20    4.15
  14   4 -14   99.29    4.21
  14  -4  14  111.54    4.06
  14   4  14  103.31    4.18
  14   4  15  105.56    4.13
  14   4 -15   96.53    4.14
  14   4  15  106.17    4.11
  14   4  16   25.84    1.47
  14  -4  16   27.75    1.41
  14   4  16   25.69    1.43
  14   4  17    2.30    0.60
  14   4 -17    1.33    0.60
  14  -4  17    1.57    0.55
  14   4  18    2.68    0.58
  14  -4  18    3.99    0.61
  14   4  19    3.17    0.57
  14  -4  19    3.85    0.59
  14   4  20    3.70    0.56
  14  -4  20    4.95    0.58
  14   4  21    4.18    0.53
  14  -4  21    5.17    0.55
  14   4  22   29.65    1.34
  14  -4  22   30.46    1.33
  15   4   0   17.08    1.32
  15   4  -1    4.05    0.84
  15   4   1    5.41    0.87
  15   4  -2   23.29    1.52
  15   4   2   23.12    1.52
 -15   4   2   22.90    1.43
  15   4   3   10.96    1.07
 -15   4   3   10.10    0.97
  15   4  -3    9.34    1.04
  15   4  -4    0.16    0.64
  15   4   4    0.38    0.67
  15   4  -4    0.93    0.58
  15   4  -5    3.54    0.80
  15   4   5    3.93    0.77
  15   4  -5    3.57    0.70
  15   4  -6    4.70    0.87
  15   4   6    5.44    0.82
  15   4  -6    6.35    0.82
  15   4  -7    6.61    0.95
  15   4   7    7.92    0.92
  15   4  -7    7.67    0.90
  15   4   7    8.18    1.04
  15   4   8   18.01    1.27
  15   4  -8   16.45    1.24
  15   4   8   16.50    1.35
  15   4  -8   17.18    1.34
  15   4   9   20.79    1.38
  15   4  -9   18.47    1.34
  15  -4   9   21.18    1.18
  15   4   9   21.19    1.46
  15   4  -9   18.94    1.42
  15   4 -10    6.79    0.97
  15   4  10    4.79    0.78
  15   4 -10    5.92    0.84
  15  -4  10    6.15    0.71
  15   4  10    6.51    0.91
  15   4  11   16.59    1.20
  15   4 -11   15.78    1.22
  15  -4  11   17.85    1.06
  15   4  11   16.67    1.23
  15   4 -11   15.37    1.28
  15   4  12   13.17    1.07
  15   4 -12   11.78    1.06
  15  -4  12   13.04    0.92
  15   4  12   13.22    1.09
  15   4 -12   11.87    1.13
  15   4  13   29.59    1.59
  15   4 -13   30.61    1.66
  15  -4  13   30.78    1.48
  15   4 -13   25.32    1.65
  15   4  14   10.24    0.89
  15   4 -14   10.41    0.93
  15  -4  14   10.44    0.83
  15   4  15   58.76    2.55
  15   4 -15   56.49    2.57
  15  -4  15   62.03    2.46
  15   4  16   37.16    1.80
  15  -4  16   38.76    1.72
  15   4  17   48.09    2.12
  15  -4  17   49.84    2.06
  15   4  18    5.74    0.62
  15  -4  18    6.62    0.62
  15   4  19    1.42    0.42
  15  -4  19    1.39    0.42
  15   4  20    0.12    0.31
  15  -4  20    0.10    0.34
  16   4   0    4.13    0.77
  16   4  -1    4.38    0.82
  16   4   1    4.45    0.77
  16   4  -2    1.47    0.67
  16   4   2    1.03    0.64
  16   4   3    1.05    0.66
  16   4  -3    1.58    0.71
  16   4   4    1.45    0.63
  16   4  -4    0.96    0.67
  16   4   5   19.10    1.30
  16   4  -5   18.78    1.19
  16   4  -5   20.76    1.40
  16   4  -6    3.67    0.82
  16   4   6    3.54    0.72
  16   4  -6    3.87    0.63
  16   4  -7    3.72    0.78
  16   4   7    3.33    0.69
  16   4  -7    3.09    0.64
  16   4  -8    0.11    0.64
  16   4   8    0.92    0.61
  16   4  -8    0.31    0.54
  16   4  -9    3.23    0.75
  16   4   9    4.50    0.69
  16   4  -9    4.13    0.69
  16   4 -10    3.68    0.76
  16   4  10    3.69    0.66
  16   4 -10    2.64    0.64
  16   4 -11    1.02    0.64
  16   4  11    2.37    0.60
  16   4 -11    1.59    0.59
  16  -4  11    1.52    0.49
  16   4 -12    6.11    0.82
  16   4  12    5.86    0.71
  16   4 -12    6.43    0.74
  16  -4  12    6.46    0.64
  16   4  13    7.64    0.76
  16  -4  13    9.09    0.71
  16   4  14    1.40    0.49
  16  -4  14    1.61    0.47
  16   4  15    7.07    0.67
  16  -4  15    7.74    0.64
  16   4  16   23.37    1.20
  16  -4  16   23.56    1.13
  16   4  17    9.02    0.66
  16  -4  17    8.50    0.61
  17   4   0    1.44    0.61
  17   4   1    9.16    0.90
  17   4  -1    8.68    0.90
  17   4  -2    1.11    0.61
  17   4   2    1.29    0.59
  17   4   3    0.90    0.59
  17   4  -3    0.32    0.57
  17   4  -4    3.88    0.74
  17   4   4    4.66    0.70
  17   4  -5    1.48    0.61
  17   4   5    1.38    0.58
  17   4  -6    1.73    0.63
  17   4   6    2.02    0.58
  17   4  -7    0.60    0.58
  17   4   7    1.72    0.55
  17   4   8    2.40    0.57
  17   4  -9    4.57    0.76
  17   4   9    5.12    0.64
  17   4 -10    0.28    0.53
  17   4  10    0.73    0.48
  17   4  11   22.36    1.22
  17   4  12   13.69    0.89
  17   4  13   10.10    0.74
  17   4  14   33.45    1.50
  18   4   0    0.58    0.49
  18   4   1    1.43    0.53
  18   4  -1    1.80    0.55
  18   4  -2   13.78    0.96
  18   4   2   11.67    0.90
  18   4  -3    2.84    0.59
  18   4   3    2.80    0.55
  18   4  -4    2.00    0.56
  18   4   4    2.00    0.52
  18   4  -5    5.80    0.69
  18   4   5    6.04    0.65
  18   4  -6    4.32    0.64
  18   4   6    5.44    0.61
  18   4  -7    3.61    0.58
  18   4   7    3.25    0.52
  18   4   8   11.50    0.79
  18   4  -8   10.63    0.83
  18   4   9   38.14    1.67
  18   4  10   32.54    1.45
  19   4   0    0.32    0.38
  19   4   1    3.63    0.51
   0  -5   0   15.25    1.38
   0  -5   1    0.15    0.56
   0  -5   2  151.42    6.54
   0  -5   3    0.25    0.68
   0  -5   4   11.35    1.42
   0  -5   5    0.86    0.78
   0  -5   6    7.07    1.29
   0  -5   7   -0.43    0.79
   0  -5   8  148.56    6.94
   0   5  -9    0.48    0.61
   0  -5   9   -0.23    0.86
   0   5  10  283.60   10.16
   0  -5  10  291.21   11.40
   0  -5  10  289.83   11.91
   0  -5  11   -0.13    0.98
   0   5  11    0.59    0.40
   0  -5  11   -0.41    0.68
   0   5  12   44.92    2.05
   0  -5  12   43.60    3.04
   0  -5  12   43.41    3.32
   0  -5  13    0.69    0.99
   0   5  13    0.28    0.39
   0  -5  13    0.24    0.77
   0  -5  14    0.57    1.02
   0   5  14    1.05    0.46
   0  -5  14    1.14    0.85
   0   5  15    0.80    0.50
   0  -5  15    0.27    0.79
   0  -5  16   16.58    2.21
   0   5  16   18.82    1.17
   0  -5  16   20.85    2.26
   0  -5  17    2.12    1.25
   0   5  17    3.13    0.59
   0  -5  17    2.42    1.18
   0   5  18   31.75    1.63
   0  -5  18   28.54    2.82
   0  -5  18   29.72    2.87
   0   5  19    1.06    0.58
   0   5  20  936.27   32.14
   0   5  21    1.21    0.57
   0   5  22  260.13    9.36
   0   5  23    0.51    0.52
   0   5  24   16.55    1.07
   0   5  25   -0.11    0.47
   0   5  26    3.92    0.59
   0   5  27    0.19    0.42
   0   5  28   34.86    1.60
   0   5  29    1.28    0.39
   0   5  30   10.90    0.66
   0   5 -30    7.51    0.64
   0   5  31    0.62    0.28
  -1  -5   0   26.55    1.91
   1  -5   1   52.72    2.91
  -1  -5   1   53.25    3.02
  -1  -5   2   18.88    1.71
   1  -5   2   21.14    1.71
  -1  -5   3   40.89    2.70
   1  -5   3   40.41    2.61
  -1  -5   4   14.89    1.62
   1  -5   4   13.72    1.52
  -1  -5   5   32.57    2.48
   1  -5   5   33.75    2.45
   1  -5   6    2.17    0.92
  -1  -5   6    1.16    0.80
  -1  -5   7   79.39    4.51
   1  -5   7   78.22    4.06
   1  -5   7   81.58    4.47
  -1   5   7   85.08    3.30
  -1  -5   8   60.17    3.94
   1  -5   8   69.33    3.69
   1  -5   8   66.90    3.96
  -1   5  -8   68.86    2.97
  -1  -5   9  146.14    7.20
  -1   5   9  151.79    5.69
   1  -5   9  161.17    6.89
   1  -5   9  154.68    7.19
   1   5  -9  152.20    5.78
  -1   5  10  106.15    4.21
   1  -5  10  116.99    5.45
   1  -5  10  110.31    5.70
   1   5 -10  109.04    4.34
  -1  -5  10  107.40    5.74
  -1   5  11  155.72    5.84
   1  -5  11  154.90    7.11
   1  -5  11  160.73    7.51
  -1  -5  11  156.94    7.55
   1   5  12  129.97    4.88
  -1   5  12  129.27    4.97
   1  -5  12  124.77    6.50
   1  -5  12  131.95    6.32
  -1  -5  12  129.99    6.67
   1  -5  13   15.60    2.01
   1  -5  13   17.38    1.96
  -1  -5  13   15.77    2.02
  -1   5  13   18.08    1.15
   1   5  13   16.66    1.04
   1   5  14   23.43    1.32
  -1   5  14   25.25    1.40
   1  -5  14   27.34    2.59
   1  -5  14   28.74    2.53
  -1  -5  14   24.16    2.54
   1   5  15   40.42    1.90
  -1   5  15   41.46    1.99
   1  -5  15   40.50    3.16
   1  -5  16   21.72    2.48
   1   5  16   20.17    1.22
  -1   5  16   20.99    1.27
  -1  -5  16   21.58    2.46
   1  -5  16   23.70    2.43
   1   5  17  160.47    5.97
  -1   5  17  157.31    6.03
   1  -5  17  158.72    7.88
   1  -5  17  176.10    8.11
  -1  -5  17  151.48    7.88
   1   5  18  113.33    4.43
   1  -5  18  119.69    6.41
  -1  -5  18  112.83    6.31
  -1   5  18  113.17    4.47
   1   5  19    6.53    0.73
  -1   5  19    7.31    0.79
   1   5  20  318.02   11.21
  -1   5  20  310.91   11.24
   1   5  21  200.06    7.35
  -1   5  21  200.80    7.38
   1   5  22   36.08    1.81
  -1   5  22   37.40    1.84
   1   5  23   28.09    1.48
  -1   5  23   27.16    1.48
   1   5  24   23.98    1.34
  -1   5  24   23.80    1.35
   1   5  25    1.85    0.50
  -1   5  25    0.66    0.49
   1   5  26    4.88    0.60
  -1   5  26    2.99    0.57
   1   5  27   -0.19    0.42
  -1   5  27    0.26    0.42
   1   5  28    4.82    0.54
  -1   5  28    4.25    0.54
   1   5  29   13.71    0.84
  -1   5  29   14.53    0.85
  -1   5 -29   14.56    0.91
  -1   5 -29   13.30    0.92
   1   5  30    1.32    0.34
  -1   5  30    1.54    0.36
   1   5  31   36.70    1.53
  -1   5  31   38.35    1.55
  -2  -5   0  155.06    6.64
  -2  -5   1   35.45    2.40
  -2  -5   2  100.31    4.89
  -2  -5   3   16.91    1.74
   2  -5   3   17.25    1.46
  -2  -5   4   19.51    1.87
   2  -5   4   16.24    1.48
   2  -5   5    7.62    1.20
  -2  -5   5    7.84    1.30
   2  -5   5    6.26    0.98
  -2  -5   6  259.85   10.96
   2  -5   6  263.93   10.76
   2  -5   6  269.40   10.49
  -2  -5   7  395.79   15.84
   2  -5   7  391.41   15.57
   2  -5   7  411.88   15.38
  -2   5  -7  411.91   14.39
  -2  -5   8   35.92    2.89
  -2   5   8   38.39    1.83
   2  -5   8   37.48    2.76
   2  -5   8   32.54    2.48
  -2   5  -8   39.39    2.00
  -2  -5   9   91.66    5.14
  -2   5   9   90.02    3.64
   2  -5   9   89.94    4.89
   2  -5   9   91.58    4.70
  -2  -5  10    1.62    1.02
   2  -5  10    0.93    0.88
   2  -5  10    0.94    0.73
  -2   5  10    1.46    0.51
  -2  -5  11    1.96    1.11
   2  -5  11    0.97    0.92
   2  -5  11    0.88    0.81
  -2   5  11    1.58    0.54
  -2  -5  12   47.99    3.59
  -2   5  12   47.81    2.23
   2  -5  12   47.04    3.40
   2  -5  12   45.49    3.23
   2  -5  13    1.06    0.97
   2  -5  13   -0.25    0.90
  -2   5  13    0.51    0.48
  -2  -5  13    0.75    1.14
   2  -5  14    2.21    1.04
  -2  -5  14    2.88    1.25
  -2   5  14    1.86    0.56
   2   5  15   12.95    0.92
  -2   5  15   14.38    1.08
   2  -5  15   13.17    1.85
  -2   5  16    2.27    0.62
   2   5  16    2.48    0.50
   2  -5  16    3.17    1.23
  -2  -5  16    1.25    1.25
   2   5  17   62.23    2.64
  -2   5  17   60.94    2.72
   2  -5  17   67.69    4.34
  -2  -5  17   58.54    4.23
   2   5  18  310.94   11.10
  -2   5  18  317.42   11.24
   2  -5  18  322.16   13.40
  -2  -5  18  294.02   13.26
   2   5  19   57.88    2.55
  -2   5  19   60.24    2.64
   2   5  20   21.97    1.26
  -2   5  20   20.32    1.33
   2   5  21   14.31    0.99
  -2   5  21   12.17    1.01
   2   5  22   72.94    2.98
  -2   5  22   69.77    3.02
   2   5  23   12.14    0.92
  -2   5  23   11.65    0.95
   2   5  24   13.44    0.94
  -2   5  24   13.13    0.97
   2   5  25   12.28    0.88
  -2   5  25   12.39    0.91
   2   5  26    3.78    0.56
  -2   5  26    3.78    0.58
   2   5  27    2.09    0.45
  -2   5  27    2.14    0.49
  -2   5 -27    1.15    0.62
   2   5  28    4.65    0.53
  -2   5  28    4.95    0.58
  -2   5 -28    4.73    0.66
   2   5  29   14.22    0.82
  -2   5  29   14.89    0.86
  -2   5 -29   12.34    0.94
   2   5  30   21.34    1.01
  -2   5  30   21.54    1.04
  -2   5 -30   20.05    1.11
  -2   5  31    0.40    0.26
   3  -5   0   27.92    1.89
  -3  -5   0   29.76    2.16
  -3  -5   1  131.02    6.10
   3  -5   1  138.60    5.79
   3  -5   2   67.42    3.46
  -3  -5   2   68.64    3.82
   3  -5   3  113.51    5.07
  -3  -5   3  108.08    5.42
  -3  -5   4   18.50    1.91
   3  -5   4   18.28    1.63
  -3  -5   5   13.20    1.68
   3  -5   5   12.47    1.39
  -3  -5   6   24.62    2.34
   3  -5   6   27.92    2.11
  -3   5   6   24.45    1.37
  -3   5  -6   23.10    1.49
  -3   5   7   68.31    2.97
  -3  -5   7   73.17    4.35
   3  -5   7   76.53    3.97
  -3   5   7   70.20    2.90
  -3   5  -7   68.35    3.10
  -3   5   8   32.00    1.73
  -3  -5   8   29.77    2.73
  -3   5   8   33.14    1.46
   3  -5   8   34.90    2.57
  -3   5   8   38.00    1.73
  -3  -5   9  103.27    5.72
  -3   5   9  103.24    4.16
   3  -5   9  111.21    5.38
   3  -5  10    6.16    1.23
  -3  -5  10    4.84    1.35
  -3   5  10    6.35    0.74
  -3  -5  11   31.85    2.89
  -3   5  11   31.06    1.67
   3  -5  11   32.78    2.61
  -3  -5  12   28.89    2.78
  -3   5  12   26.17    1.51
   3  -5  12   25.62    2.40
  -3  -5  13   39.08    3.26
  -3   5  13   36.56    1.88
   3  -5  13   36.82    2.91
  -3  -5  14    4.76    1.41
   3  -5  14    5.42    1.35
  -3   5  14    5.02    0.72
  -3   5  15   48.22    2.31
   3  -5  15   49.96    3.59
  -3  -5  16  265.86   12.21
  -3   5  16  284.90   10.21
   3  -5  16  284.96   12.10
  -3   5  17  206.33    7.64
   3  -5  17  211.07    9.57
  -3  -5  17  197.28    9.59
   3   5  18   59.91    2.51
  -3   5  18   56.05    2.63
   3  -5  18   63.14    4.24
   3   5  19   15.48    1.01
  -3   5  19   14.99    1.15
   3   5  20   37.23    1.78
  -3   5  20   36.73    1.92
   3   5  21   94.34    3.74
  -3   5  21   95.38    3.85
   3   5  22    8.59    0.77
  -3   5  22    9.03    0.85
   3   5  23   31.31    1.57
  -3   5  23   32.08    1.67
   3   5  24    3.22    0.54
  -3   5  24    4.14    0.68
   3   5  25   42.07    1.92
  -3   5  25   42.27    1.97
  -3   5 -25   44.68    2.14
   3   5  26   29.20    1.42
  -3   5  26   27.88    1.44
  -3   5 -26   28.57    1.55
   3   5  27   39.92    1.79
  -3   5  27   41.13    1.84
  -3   5 -27   40.89    1.87
   3   5  28    0.89    0.36
  -3   5  28    0.63    0.40
  -3   5 -29    5.21    0.73
   3   5  29    5.14    0.48
  -3   5  29    5.52    0.53
  -3   5 -30    4.28    0.58
   3   5  30    4.20    0.39
   4  -5   0   11.19    1.25
  -4  -5   0   14.50    1.56
   4  -5  -1   19.32    1.59
   4  -5   1   20.48    1.69
  -4  -5   1   17.88    1.79
  -4  -5   2    5.16    1.12
   4  -5  -2    7.49    1.00
   4  -5   2    5.82    1.03
   4  -5  -3  316.57   12.28
   4  -5   3  346.45   12.72
  -4   5   3  318.71   11.41
  -4   5  -3  335.39   11.63
  -4  -5   3  319.42   13.11
  -4   5   3  330.86   11.64
  -4   5  -3  335.84   11.75
   4  -5   4  542.23   19.82
  -4   5   4  531.17   18.47
  -4   5  -4  545.05   18.71
  -4  -5   4  560.74   20.47
  -4   5   4  532.13   18.66
  -4   5  -4  540.44   18.83
   4  -5   5  321.74   12.31
  -4   5   5  308.95   10.88
  -4   5  -5  320.96   11.18
  -4  -5   5  317.02   12.89
  -4   5   5  308.08   11.08
  -4   5  -5  313.74   11.27
   4  -5   6   34.95    2.48
  -4   5   6   30.35    1.39
  -4   5  -6   30.53    1.66
  -4  -5   6   31.05    2.72
  -4   5   7   93.04    3.90
   4  -5   7   92.02    4.87
  -4   5   7   99.16    3.56
  -4  -5   7   98.10    5.41
  -4   5  -7   92.39    3.85
  -4   5   7   95.03    3.77
  -4   5   8  194.43    7.53
  -4  -5   8  195.62    9.26
  -4   5   8  201.13    7.15
   4  -5   8  206.85    8.79
  -4   5   8  214.64    7.41
  -4  -5   9   13.32    1.94
  -4   5   9   13.25    1.04
   4  -5   9   13.40    1.67
  -4   5   9   12.64    0.74
  -4   5  10   23.91    1.43
  -4  -5  10   27.19    2.72
   4  -5  10   21.67    2.18
  -4  -5  11   30.95    2.92
  -4   5  11   27.78    1.58
   4  -5  11   24.99    2.35
  -4  -5  12   47.71    3.76
  -4   5  12   51.12    2.39
   4  -5  12   47.55    3.43
   4  -5  13    5.61    1.30
  -4  -5  13    6.50    1.61
  -4   5  13    7.00    0.84
  -4   5  14   39.43    2.01
  -4  -5  14   38.55    3.32
   4  -5  14   34.39    2.98
  -4   5  15  165.28    6.26
   4  -5  15  159.87    7.86
  -4  -5  16    8.05    1.66
  -4   5  16    8.35    0.89
  -4  -5  17   31.94    3.01
  -4   5  17   31.36    1.74
   4  -5  17   31.56    2.86
  -4   5  18   53.99    2.51
  -4   5  19   13.80    1.12
  -4   5  20    3.63    0.70
  -4   5  21   17.71    1.21
   4   5  22   43.36    1.96
  -4   5  22   44.95    2.09
  -4   5 -22   40.04    2.21
   4   5  23    0.62    0.43
  -4   5  23    0.58    0.54
  -4   5 -23   -0.21    0.77
   4   5  24    3.37    0.51
  -4   5 -24    2.60    0.79
   4   5  25   18.63    1.06
  -4   5 -25   17.95    1.22
   4   5  26   16.51    0.96
  -4   5 -26   15.99    1.09
   4   5  27   11.49    0.74
   4   5  28    6.45    0.53
  -4   5 -29   12.14    0.94
  -4   5 -30    1.20    0.50
  -4   5  30    1.82    0.35
  -5  -5   0  316.24   13.00
   5  -5   0  328.46   12.60
  -5   5   0  329.99   11.58
  -5   5   0  326.61   11.68
  -5  -5   1  204.74    8.81
   5  -5  -1  196.83    8.15
   5  -5   1  197.67    8.25
  -5   5   1  196.05    7.22
  -5   5   1  195.92    7.07
  -5   5  -1  197.12    7.24
  -5   5   1  203.61    7.33
  -5   5  -1  199.78    7.36
  -5  -5   2  258.65   10.69
   5  -5   2  261.15   10.14
   5  -5  -2  247.85    9.85
  -5   5   2  244.01    8.76
  -5   5  -2  252.21    8.98
  -5   5   2  249.67    9.01
  -5   5  -2  248.20    9.07
   5  -5  -3  255.93   10.29
   5  -5   3  279.66   10.69
  -5   5   3  263.77    9.25
  -5   5  -3  260.79    9.47
  -5   5   3  264.42    9.49
  -5  -5   3  271.10   11.28
   5  -5  -4  189.92    7.95
   5  -5   4  198.89    8.34
  -5   5   4  194.07    6.92
  -5   5  -4  200.36    7.20
  -5   5   4  190.61    7.13
  -5   5  -4  195.15    7.33
  -5  -5   4  204.38    9.04
   5  -5  -5  142.35    6.23
   5  -5   5  149.34    6.71
  -5   5   5  144.48    5.23
  -5   5  -5  144.90    5.53
  -5   5   5  142.11    5.44
  -5  -5   5  147.81    7.27
  -5   5  -5  148.85    5.69
   5  -5   6  170.44    7.55
  -5   5   6  169.80    6.03
  -5   5  -6  167.08    6.36
  -5   5   6  169.04    6.26
  -5  -5   6  172.67    8.27
  -5   5  -6  171.33    6.49
  -5   5   7  137.34    5.45
   5  -5   7  145.76    6.69
  -5   5   7  139.42    5.06
  -5   5   7  144.69    5.31
  -5  -5   7  134.16    7.15
  -5   5  -7  144.42    5.56
  -5   5   8  117.38    4.80
   5  -5   8  122.53    6.03
  -5   5   8  122.27    4.40
  -5  -5   8  118.08    6.51
  -5   5  -8  123.99    4.94
  -5   5   9    7.10    0.84
  -5   5   9    8.36    0.60
  -5  -5   9    6.24    1.53
  -5   5  10   73.91    3.24
  -5   5  10   75.23    2.85
   5  -5  10   78.61    4.48
  -5  -5  10   77.84    4.93
  -5   5 -10   73.61    3.25
  -5   5  11  111.31    4.60
  -5  -5  11  109.35    6.36
  -5   5  11  115.51    4.23
   5  -5  11  114.09    5.93
  -5   5 -11  118.81    4.66
  -5   5  12   40.74    2.16
  -5  -5  12   40.49    3.52
   5  -5  12   46.39    3.34
  -5   5 -12   45.73    2.27
  -5   5  13   34.09    1.85
  -5  -5  13   33.81    3.19
   5  -5  13   29.91    2.72
  -5   5 -13   30.71    1.88
  -5  -5  14   28.41    2.97
  -5   5  14   32.08    1.76
   5  -5  14   28.35    2.68
  -5   5 -14   29.36    1.80
   5  -5  15    6.34    1.46
  -5   5  15    7.00    0.89
  -5   5 -15    5.13    0.96
  -5  -5  16   24.11    2.72
  -5   5  16   22.41    1.46
   5  -5  16   22.13    2.38
  -5   5 -16   22.42    1.60
  -5   5  17   14.92    1.17
  -5   5 -17   14.53    1.32
  -5   5 -18   35.75    2.04
  -5   5 -19   34.37    1.97
  -5   5 -20   59.84    2.83
  -5   5 -21   74.99    3.30
  -5   5 -22   49.09    2.40
   5   5  23   13.14    0.98
  -5   5 -23   12.11    1.11
   5   5  24   36.52    1.83
  -5   5 -24   41.87    1.96
   5   5  25   12.28    0.91
  -5   5  25   13.17    0.92
  -5   5 -25   13.62    1.02
  -5   5  26   20.36    1.12
  -5   5  27   22.08    1.14
  -5   5  28   14.94    0.86
  -5   5 -28   15.61    1.12
  -5   5 -29    4.49    0.67
  -5   5  29    4.24    0.44
  -5   5 -30    6.68    0.65
  -5   5  30    7.53    0.50
   6  -5   0   58.10    3.39
  -6   5   0   58.79    2.57
  -6   5   0   58.04    2.63
   6  -5   1   32.25    2.13
   6  -5  -1   35.69    2.44
   6  -5   1   35.62    2.54
  -6   5   1   32.04    1.51
  -6   5  -1   36.62    1.79
  -6   5  -1   34.89    1.55
  -6   5   1   32.99    1.77
  -6   5  -1   33.32    1.78
   6  -5   2  164.47    7.31
   6  -5  -2  185.68    7.72
   6  -5   2  185.32    7.88
  -6   5   2  178.33    6.47
  -6   5  -2  189.20    6.52
  -6   5  -2  172.28    6.68
  -6   5   2  182.66    6.74
  -6   5  -2  188.26    6.84
   6  -5  -3   90.15    4.64
   6  -5   3   96.73    4.93
  -6   5   3   95.33    3.58
  -6   5  -3   96.38    3.65
  -6   5  -3   96.61    3.85
  -6   5   3   94.95    3.84
  -6   5  -3   97.86    3.95
   6  -5   4   13.97    1.65
   6  -5  -4   14.34    1.51
  -6   5   4   12.81    0.80
  -6   5  -4   11.47    0.85
  -6   5  -4   13.38    1.07
  -6   5   4   13.78    1.04
  -6   5  -4   13.03    1.13
   6  -5  -5   41.96    2.74
   6  -5   5   49.42    3.19
  -6   5   5   45.62    1.86
  -6   5  -5   42.76    1.93
  -6   5  -5   44.44    2.18
  -6   5   5   45.45    2.08
  -6   5  -5   45.94    2.27
   6  -5  -6   74.69    4.01
   6  -5   6   82.48    4.50
  -6   5   6   82.26    3.00
  -6   5  -6   73.80    3.07
  -6   5   6   79.33    3.23
  -6   5  -6   81.79    3.47
  -6  -5   7   26.66    2.79
   6  -5  -7   24.99    2.03
   6  -5   7   27.56    2.39
  -6   5   7   27.68    1.26
  -6   5  -7   24.04    1.32
  -6   5   7   29.02    1.49
  -6   5  -7   26.46    1.67
  -6   5  -8   10.56    1.10
   6  -5   8    9.25    1.54
  -6   5   8    9.47    0.99
  -6  -5   8    8.86    1.77
  -6   5   8   10.99    0.72
  -6   5  -8    7.20    0.72
  -6   5  -8   10.05    1.05
  -6   5   9  262.47    9.80
  -6   5   9  279.70    9.37
   6  -5   9  260.45   11.27
  -6   5  -9  253.61    9.44
  -6   5  -9  274.50    9.77
  -6  -5   9  269.58   11.97
  -6   5  -9  268.07    9.88
  -6  -5  10   15.71    2.26
  -6   5  10   18.24    1.33
  -6   5  10   19.88    1.05
   6  -5  10   19.75    2.14
  -6   5 -10   17.15    1.09
  -6   5 -10   18.78    1.40
   6  -5  11    4.51    1.22
  -6   5  11    4.92    0.83
  -6   5  11    4.49    0.62
  -6   5 -11    2.80    0.58
  -6   5 -11    4.76    0.93
  -6  -5  11    4.60    1.56
  -6   5  12   79.73    3.10
   6  -5  12   83.96    4.82
  -6   5 -12   76.02    3.38
  -6  -5  13    1.57    1.21
   6  -5  13    2.39    1.15
  -6   5 -13    1.38    0.90
   6  -5  14    2.88    1.13
  -6   5 -14    2.34    0.86
  -6  -5  14    2.64    1.39
   6  -5  15    4.11    1.28
  -6   5 -15    3.14    0.88
  -6   5 -16   14.64    1.30
  -6   5 -17   10.00    1.17
  -6   5 -18   11.10    1.18
  -6   5  19   94.97    3.94
  -6   5 -19   98.47    4.05
   6   5  20  199.20    7.43
  -6   5  20  204.32    7.46
  -6   5 -20  198.94    7.50
   6   5  21   99.11    4.04
  -6   5  21  101.34    4.05
  -6   5 -21  102.50    4.14
   6   5  22  104.77    4.13
  -6   5  22  101.76    4.09
  -6   5 -22  105.38    4.18
   6   5  23   19.35    1.22
  -6   5  23   20.03    1.22
  -6   5 -23   20.81    1.32
   6   5  24   35.05    1.75
  -6   5  24   37.65    1.75
   6   5  25   11.14    0.84
  -6   5  25   10.92    0.81
  -6   5  26    1.57    0.42
   6   5  26    1.42    0.42
  -6   5 -27    8.53    0.97
  -6   5  27    9.93    0.68
  -6   5 -28    3.15    0.69
  -6   5  28    3.63    0.43
  -6   5 -29    4.06    0.64
  -6   5  29    4.56    0.42
   7  -5   0   11.13    1.49
  -7   5   0   13.61    0.86
  -7   5   0   13.93    1.13
   7  -5   1   68.73    3.60
   7  -5  -1   74.24    4.07
   7  -5   1   69.28    4.02
  -7   5  -1   75.72    2.87
  -7   5   1   72.35    3.12
  -7   5  -1   73.40    3.16
   7  -5   2   50.44    3.02
   7  -5  -2   51.62    3.30
   7  -5   2   59.11    3.58
  -7   5   2   56.58    2.27
  -7   5  -2   58.22    2.58
  -7   5  -2   59.21    2.33
  -7   5   2   53.36    2.53
  -7   5  -2   59.57    2.66
   7  -5   3    7.38    1.33
   7  -5  -3   14.20    1.61
   7  -5   3    7.91    1.21
  -7   5   3   11.29    0.75
  -7   5  -3    9.13    0.74
  -7   5  -3   10.87    1.03
  -7   5   3   12.12    0.99
  -7   5  -3   11.27    1.09
   7  -5   4   32.77    2.41
   7  -5  -4   40.65    2.74
   7  -5   4   36.25    2.76
  -7   5   4   39.32    1.61
  -7   5  -4   35.51    1.65
  -7   5   4   36.61    1.85
  -7   5  -4   35.51    1.99
   7  -5   5   34.61    2.48
   7  -5  -5   32.27    2.48
   7  -5   5   38.99    2.88
  -7   5   5   35.90    1.57
  -7   5  -5   38.48    1.67
  -7   5   5   34.34    1.79
  -7   5  -5   38.34    2.02
   7  -5   6   28.28    2.28
   7  -5  -6   29.25    2.31
   7  -5   6   28.78    2.55
  -7   5   6   32.46    1.41
  -7   5  -6   31.05    1.47
  -7   5   6   29.20    1.56
  -7   5  -6   29.25    1.79
   7  -5  -7   52.14    3.16
   7  -5   7   49.84    3.45
  -7   5   7   51.66    2.02
  -7   5  -7   45.64    2.04
  -7   5  -7   46.08    2.35
  -7   5   7   51.06    2.22
  -7   5  -7   45.69    2.41
   7  -5  -8   31.36    2.41
   7  -5   8   31.11    2.70
  -7   5   8   33.92    1.53
  -7   5  -8   32.14    1.52
  -7   5  -8   35.80    1.88
  -7   5  -8   30.14    1.89
   7  -5  -9  132.30    6.42
   7  -5   9  141.56    6.93
  -7   5   9  153.50    5.19
  -7   5  -9  137.45    5.17
  -7   5  -9  136.06    5.47
  -7   5  -9  130.59    5.55
  -7  -5   9  147.85    7.69
  -7   5  10   64.21    2.56
   7  -5  10   62.04    4.07
  -7   5 -10   63.12    2.52
  -7   5 -10   61.07    2.86
  -7  -5  10   57.29    4.38
  -7   5 -10   57.08    2.91
  -7   5  11   25.60    1.36
   7  -5  11   20.69    2.32
  -7  -5  11   19.71    2.57
  -7   5 -11   23.65    1.57
   7  -5  12   11.04    1.72
  -7   5  12    9.11    0.90
  -7   5 -12   10.19    1.10
  -7  -5  12    6.25    1.64
  -7   5  13   46.78    2.40
  -7   5  13   50.47    2.28
   7  -5  13   47.70    3.56
  -7  -5  13   47.43    3.89
  -7   5 -13   51.72    2.49
  -7  -5  14    3.07    1.37
   7  -5  14    5.30    1.37
  -7   5  14    4.48    0.80
  -7   5 -14    5.62    0.98
  -7   5  15    2.85    0.69
  -7   5 -15    3.40    0.89
  -7   5  16   18.34    1.27
  -7   5 -16   14.94    1.34
   7   5  17   24.37    1.46
  -7   5  17   24.96    1.50
  -7   5 -17   22.60    1.58
  -7   5  18    4.49    0.76
   7   5  18    3.13    0.65
  -7   5 -18    4.11    0.95
   7   5  19   33.17    1.75
  -7   5  19   33.28    1.76
  -7   5 -19   31.36    1.83
   7   5  20   82.43    3.48
  -7   5  20   83.36    3.46
  -7   5 -20   86.38    3.55
   7   5  21   38.89    1.95
  -7   5  21   38.86    1.93
  -7   5 -21   42.61    2.05
   7   5  22   20.21    1.25
  -7   5  22   20.87    1.25
  -7   5 -22   20.58    1.31
  -7   5  23    5.58    0.68
   7   5  23    5.95    0.71
   7   5  24   26.96    1.49
  -7   5  24   33.96    1.53
   7   5  25    6.42    0.65
  -7   5  25    7.01    0.64
  -7   5 -26    0.65    0.75
  -7   5  26    0.74    0.37
   7   5  26   -0.02    0.37
  -7   5 -27    8.73    0.93
  -7   5  27   10.22    0.66
  -7   5  28    5.40    0.46
  -8   5   0    0.33    0.71
   8  -5   0    0.54    0.79
  -8   5   0    1.73    0.49
  -8   5   1    8.34    0.92
  -8   5  -1    9.10    0.96
   8  -5  -1    7.30    1.30
   8  -5   1    8.14    1.37
  -8   5   1    9.81    0.72
  -8   5  -1    8.86    0.69
   8  -5   2   40.06    2.67
   8  -5  -2   43.05    3.04
   8  -5   2   54.20    3.41
  -8   5  -2   47.96    1.98
  -8   5   2   48.24    2.24
  -8   5  -2   47.54    2.31
   8  -5   3   21.15    1.85
   8  -5  -3   20.00    2.00
   8  -5   3   20.00    2.07
  -8   5   3   23.39    1.12
  -8   5  -3   21.97    1.12
  -8   5   3   21.41    1.35
  -8   5  -3   21.33    1.45
   8  -5   4   41.79    2.79
   8  -5  -4   44.70    3.06
   8  -5   4   48.67    3.31
  -8   5   4   48.62    1.91
  -8   5  -4   43.59    1.90
  -8   5   4   44.31    2.10
  -8   5  -4   42.74    2.25
   8  -5   5   23.53    2.03
   8  -5  -5   23.01    2.13
   8  -5   5   25.50    2.37
  -8   5   5   24.13    1.21
  -8   5  -5   22.41    1.18
  -8   5  -5   25.46    1.54
   8   5  -5   22.96    1.59
  -8   5   5   22.85    1.37
  -8   5  -5   25.16    1.61
  -8   5  -6    6.47    0.97
   8  -5  -6    8.10    1.30
   8  -5   6    7.09    1.44
   8  -5   6    6.94    1.29
  -8   5   6    8.37    0.73
  -8   5  -6    7.98    0.68
  -8   5  -6    7.66    1.04
   8   5  -6    9.25    1.09
  -8   5   6    8.11    0.87
  -8   5  -7   10.91    1.14
   8  -5  -7   10.24    1.48
   8  -5   7   10.65    1.67
   8  -5   7    9.64    1.44
  -8   5   7   10.74    0.84
  -8   5  -7   11.49    0.79
  -8   5  -7   11.32    1.14
   8   5  -7    9.76    1.16
   8  -5   8   49.11    3.33
   8  -5  -8   53.90    3.45
  -8   5   8   58.16    2.73
   8  -5   8   52.17    3.75
  -8   5   8   57.79    2.37
  -8   5  -8   56.89    2.29
  -8   5  -8   55.08    2.63
   8   5  -8   55.06    2.85
  -8   5  -8   53.99    2.69
  -8   5  -9   11.87    1.22
   8  -5  -9   10.86    1.52
   8  -5   9   12.56    1.84
  -8   5   9   15.38    1.25
   8  -5   9   12.36    1.67
  -8   5   9   12.93    1.01
  -8   5  -9   14.57    0.87
  -8   5  -9   12.84    1.23
   8   5  -9   13.12    1.32
   8  -5 -10   19.18    1.98
   8  -5  10   20.05    2.22
  -8   5  10   20.40    1.44
   8  -5  10   17.17    1.93
  -8   5  10   18.71    1.20
  -8  -5  10   19.30    2.51
  -8   5 -10   19.94    1.06
  -8   5 -10   22.76    1.52
   8   5 -10   19.85    1.57
  -8   5 -10   18.18    1.44
  -8   5 -11    1.75    0.86
  -8  -5  11    1.98    1.23
   8  -5  11    1.43    1.08
   8  -5  11    3.38    1.12
  -8   5  11    2.66    0.77
  -8   5  11    0.57    0.72
  -8   5 -11    2.02    0.90
   8  -5  12   55.08    3.77
  -8   5  12   71.33    3.06
  -8   5  12   66.86    2.86
   8  -5  12   59.71    4.18
  -8   5 -12   65.98    2.99
  -8  -5  12   65.01    4.69
  -8   5 -12   65.95    3.12
  -8   5 -13   10.46    1.21
  -8   5  13   12.41    1.11
  -8   5  13   10.53    1.06
  -8   5 -13   13.43    1.20
   8   5  14   23.31    1.38
  -8   5  14   19.96    1.40
  -8   5 -14   20.26    1.50
  -8   5  15    1.97    0.70
   8   5  15    1.31    0.57
  -8   5 -15    1.37    0.85
   8   5  16   34.77    1.86
  -8   5  16   37.43    1.94
  -8   5 -16   35.25    1.96
   8   5  17   60.92    2.72
  -8   5  17   59.03    2.73
  -8   5 -17   60.76    2.78
   8   5  18   51.06    2.41
  -8   5  18   51.83    2.42
  -8   5 -18   52.85    2.48
  -8   5  19    3.92    0.72
   8   5  19    4.17    0.67
  -8   5 -19    3.69    0.81
   8   5  20   11.41    0.96
  -8   5  20   10.36    0.90
  -8   5 -20   12.18    1.05
  -8   5  21    1.22    0.54
   8   5  21    1.26    0.54
  -8   5 -21    2.58    0.72
   8   5  22   40.54    1.93
  -8   5  22   40.78    1.90
   8   5  23   29.70    1.52
  -8   5  23   29.83    1.47
   8   5  24   32.03    1.62
  -8   5  24   35.16    1.60
  -8   5 -24   38.21    1.95
  -8   5 -25    0.64    0.70
  -8   5  25    0.66    0.37
   8   5  25    0.83    0.40
  -8   5  26    5.10    0.49
   8   5  26    4.44    0.52
  -8   5  27   28.77    1.27
  -8   5 -27   30.60    1.51
  -8   5 -28   60.99    2.44
  -9   5   0    1.03    0.75
   9  -5   0    1.04    0.88
  -9   5   0    1.68    0.51
   9  -5  -1  173.64    8.11
   9  -5   1  177.07    8.21
  -9   5   1  187.25    6.56
  -9   5  -1  186.53    6.54
  -9   5  -1  174.98    6.83
   9  -5  -2    6.47    1.31
   9  -5   2    6.49    1.38
   9  -5   2    7.59    1.21
  -9   5  -2    7.73    0.68
  -9   5  -2    9.53    1.03
   9  -5  -3   76.95    4.31
   9  -5   3   71.61    4.31
  -9   5  -3   76.76    2.83
  -9   5  -3   66.21    3.10
   9  -5   3   65.12    3.73
   9  -5  -4  135.73    6.52
   9  -5   4  128.61    6.60
  -9   5   4  134.29    4.97
  -9   5  -4  143.86    4.94
   9   5  -4  136.06    5.44
  -9   5  -4  129.63    5.27
   9  -5   4  117.12    5.96
   9  -5   5   33.77    2.53
   9  -5  -5   33.70    2.69
   9  -5   5   35.78    2.92
  -9   5   5   34.11    1.64
  -9   5  -5   37.70    1.61
   9   5  -5   33.32    2.05
  -9   5  -5   37.27    1.99
   9  -5   6   54.02    3.39
   9  -5  -6   47.78    3.43
   9  -5   6   56.33    3.87
  -9   5   6   55.55    2.43
   9   5  -6   54.10    2.84
  -9   5  -6   58.41    2.74
   9  -5   7   73.62    4.09
   9  -5  -7   65.71    4.12
  -9   5   7   74.05    3.34
   9  -5   7   73.50    4.54
  -9   5   7   75.62    3.00
  -9   5  -7   78.13    2.89
   9   5  -7   71.37    3.44
  -9   5  -7   68.03    3.24
  -9   5  -8    2.72    0.88
   9  -5  -8    3.21    1.04
   9  -5   8    1.82    1.11
   9  -5   8    2.07    1.03
  -9   5   8    2.08    0.75
  -9   5   8    2.19    0.70
  -9   5  -8    3.69    0.54
  -9   5  -8    3.66    0.94
   9   5  -8    1.79    0.80
  -9   5  -9    0.97    0.76
   9  -5  -9    1.75    0.89
   9  -5   9    1.71    1.14
   9  -5   9    2.12    1.09
  -9   5   9    1.14    0.74
  -9   5   9    1.14    0.73
  -9   5  -9    2.80    0.52
  -9   5  -9    2.62    0.90
   9   5  -9    1.12    0.80
  -9   5 -10    0.53    0.78
   9  -5 -10   -0.12    0.78
   9  -5  10    0.29    0.98
   9  -5  10    0.11    0.92
  -9   5  10    1.07    0.73
  -9   5  10   -0.30    0.78
  -9   5 -10    1.70    0.82
   9   5 -10    0.37    0.79
  -9   5  11   32.86    1.86
  -9   5  11   27.89    1.68
  -9   5 -11   31.51    1.79
   9   5 -11   28.10    1.93
  -9   5 -11   29.74    1.81
   9   5  12    2.70    0.64
  -9   5  12    2.36    0.80
  -9   5  12    1.27    0.85
  -9   5 -12    2.32    0.87
  -9   5 -13    4.25    0.95
   9   5  13    5.47    0.74
  -9   5  13    5.69    0.89
  -9   5 -13    5.68    0.98
  -9   5 -14    5.87    1.01
   9   5  14    7.07    0.80
  -9   5  14    6.89    0.93
  -9   5 -14    7.05    0.97
   9   5  15   37.08    1.95
  -9   5  15   39.68    2.04
  -9   5 -15   40.69    2.05
  -9   5 -15   37.06    2.11
   9   5  16  119.96    4.77
  -9   5  16  122.98    4.80
  -9   5 -16  126.60    4.80
  -9   5 -16  112.04    4.86
   9   5  17   50.03    2.39
  -9   5  17   53.65    2.43
  -9   5 -17   51.92    2.43
  -9   5 -17   49.10    2.55
  -9   5 -18    2.05    0.84
  -9   5  18    1.94    0.64
   9   5  18    2.49    0.62
  -9   5 -18    2.69    0.76
  -9   5 -19    0.86    0.82
  -9   5  19    1.70    0.57
   9   5  19    1.80    0.56
  -9   5 -19    2.62    0.72
  -9   5 -20    1.80    0.85
  -9   5  20    1.91    0.56
   9   5  20    1.42    0.53
   9   5  21    7.89    0.78
  -9   5 -21    7.53    1.02
  -9   5  21    9.67    0.78
   9   5  22   12.36    0.93
  -9   5  22   14.25    0.92
  -9   5 -22   15.36    1.24
   9   5  23   54.64    2.40
  -9   5  23   59.12    2.36
  -9   5 -23   57.28    2.60
   9   5  24   12.00    0.84
  -9   5  24   13.71    0.82
  -9   5 -24   12.83    1.07
   9   5  25  148.29    5.65
  -9   5  25  160.83    5.63
  -9   5 -25  164.49    5.85
   9   5  26    6.77    0.53
  -9   5 -26    6.77    0.76
  -9   5  26    7.92    0.52
   9  -5  27   42.32    1.68
  -9   5 -27   42.77    1.82
  10  -5   0    0.12    0.87
 -10   5   0    1.49    0.58
  10  -5  -1    1.95    0.98
  10  -5   1    1.61    1.00
 -10   5   1    1.80    0.59
 -10   5  -1    2.10    0.61
  10  -5  -2   10.25    1.60
  10  -5   2   11.64    1.71
 -10   5   2    9.69    0.89
 -10   5  -2   11.48    0.84
  10  -5   3   87.44    5.14
 -10   5  -3   96.95    3.60
  10  -5   3   88.44    4.63
  10  -5  -4  207.68    9.53
  10  -5   4  216.92    9.79
 -10   5  -4  231.84    7.91
  10   5  -4  217.84    8.36
  10  -5   4  205.73    9.06
  10  -5  -5  168.35    8.17
  10  -5   5  177.86    8.50
 -10   5   5  185.57    6.76
 -10   5  -5  191.45    6.64
  10   5  -5  185.08    7.17
 -10   5  -5  181.87    6.98
  10  -5   5  178.80    7.91
  10  -5  -6   68.53    4.08
  10  -5   6   67.62    4.31
 -10   5   6   63.61    2.79
 -10   5  -6   67.86    2.66
 -10   5  -6   66.94    2.99
  10  -5   6   63.08    3.74
  10  -5  -7    7.88    1.45
  10  -5   7    7.66    1.54
  10  -5   7    5.50    1.23
 -10   5   7    9.52    1.08
 -10   5  -7    9.98    0.79
 -10   5   7    8.25    1.00
  10   5  -7    8.62    1.11
 -10   5  -7    9.92    1.06
  10   5   8   29.03    1.64
 -10   5   8   34.51    1.93
 -10   5   8   29.39    1.68
 -10   5  -8   29.65    1.42
  10   5  -8   26.33    1.86
 -10   5  -8   32.38    1.82
 -10   5  -9    4.11    0.86
  10   5   9    3.55    0.70
 -10   5   9    4.96    0.89
 -10   5  -9    6.09    0.66
 -10   5   9    3.94    0.90
  10   5  -9    5.97    0.99
 -10   5 -10    1.14    0.77
  10   5  10    1.08    0.58
 -10   5  10    2.18    0.78
 -10   5  10    0.23    0.87
  10   5 -10    1.49    0.83
  10   5  11   19.78    1.33
 -10   5  11   22.31    1.49
  10   5 -11   21.09    1.58
 -10   5 -11   20.64    1.49
  10   5  12   12.91    1.06
  10   5 -12   11.25    1.26
 -10   5 -12   14.06    1.22
  10   5  13   11.67    1.01
 -10   5  13   12.57    1.13
 -10   5 -13   11.24    1.13
 -10   5 -14    1.35    0.79
  10   5  14    1.09    0.59
 -10   5  14    1.51    0.68
  10   5  15   11.50    1.00
 -10   5  15   13.50    1.09
 -10   5 -16    1.78    0.79
  10   5  16    2.78    0.64
 -10   5  16    3.66    0.72
 -10   5 -17    1.05    0.75
  10   5  17    1.43    0.57
 -10   5  17    0.71    0.54
 -10   5 -18    0.22    0.70
  10   5  18    0.39    0.51
 -10   5  18    0.27    0.49
 -10   5 -19    3.36    0.82
  10   5  19    4.39    0.67
 -10   5 -20   -0.71    0.70
 -10   5  20    0.38    0.46
  10   5  20    0.20    0.47
 -10   5 -21    0.48    0.67
 -10   5  21   -0.25    0.39
  10   5  21    0.22    0.45
 -10   5 -22    3.25    0.74
 -10   5  22    3.30    0.49
  10   5  22    3.50    0.57
 -10   5 -23    4.28    0.75
 -10   5  23    3.25    0.45
  10   5  23    2.74    0.49
  10   5  24    7.69    0.63
 -10   5  24    7.83    0.58
 -10   5 -24    9.56    0.82
  10   5  25   32.00    1.44
 -10   5  25   34.12    1.40
 -10   5 -25   36.40    1.60
  10  -5  26    4.10    0.42
 -11   5   0   25.32    1.45
 -11   5   1   74.72    3.15
 -11   5  -1   79.95    3.13
 -11   5   2  256.09    9.38
 -11   5  -2  268.21    9.35
 -11   5   3   12.90    1.11
 -11   5  -3   12.87    1.02
 -11   5  -4    5.17    0.80
  11   5   5   60.38    2.85
 -11   5  -5   68.09    2.74
  11   5  -5   68.65    3.11
  11   5   6   25.80    1.51
 -11   5   6   29.80    1.76
 -11   5   6   22.85    1.57
 -11   5  -6   25.14    1.38
  11   5  -6   25.02    1.68
  11   5   7   25.04    1.57
 -11   5   7   27.42    1.66
 -11   5  -7   29.66    1.49
  11   5  -7   28.66    1.85
  11   5   8    1.01    0.54
 -11   5   8    1.62    0.71
 -11   5   8   -0.13    0.90
 -11   5  -8    1.88    0.62
  11   5  -8    0.94    0.81
  11   5   9   20.36    1.32
 -11   5   9   20.00    1.46
  11   5  -9   17.93    1.46
 -11   5 -10    0.62    0.71
  11   5  10   -0.18    0.56
 -11   5  10    0.66    0.72
  11   5 -10    0.10    0.74
  11   5  11   15.52    1.16
 -11   5  11   15.22    1.25
  11   5 -11   14.10    1.32
 -11   5 -11   15.18    1.23
  11   5  12   99.19    4.01
  11   5 -12   88.85    4.13
 -11   5 -12   94.90    4.00
  11   5  13    9.59    0.94
 -11   5  13   12.41    1.07
 -11   5 -13   10.42    1.05
 -11   5 -14    9.36    0.97
  11   5  14    8.21    0.88
 -11   5  14    8.32    0.91
 -11   5 -15    1.16    0.69
  11   5  15    0.86    0.56
 -11   5  15    1.42    0.59
 -11   5 -16    5.75    0.83
  11   5  16    6.43    0.78
 -11   5  16    6.31    0.74
 -11   5 -17    1.64    0.72
  11   5  17    2.22    0.62
 -11   5  17    1.64    0.55
  11   5  18    8.14    0.81
 -11   5 -18    9.32    0.93
 -11   5  18   11.18    0.86
 -11   5 -19    3.54    0.72
  11   5  19    3.38    0.61
 -11   5  19    4.30    0.56
  11   5  20    8.00    0.75
 -11   5 -20    8.99    0.87
 -11   5  20    8.60    0.69
 -11   5 -21    2.18    0.64
  11   5  21    2.16    0.49
 -11   5  21    2.32    0.43
  11   5  22   30.99    1.48
 -11   5  22   31.94    1.40
 -11   5 -22   33.58    1.58
  11   5  23    7.46    0.62
 -11   5  23    9.46    0.57
 -11   5 -23    9.06    0.74
  11  -5  24    2.51    0.44
  11  -5  25   23.13    1.04
  12   5   0    1.85    0.69
 -12   5   0    0.28    0.84
  12   5   1   49.54    2.33
 -12   5   1   50.01    2.36
 -12   5  -1   43.39    2.30
 -12   5   2  113.00    4.60
 -12   5  -2  108.71    4.50
  12   5   3   55.44    2.49
 -12   5   3   47.11    2.47
 -12   5  -3   52.98    2.39
  12   5   4   35.18    1.83
 -12   5   4   30.67    1.90
 -12   5  -4   32.76    1.77
  12   5   5   40.07    2.00
 -12   5   5   42.79    2.25
 -12   5  -5   35.22    1.89
  12   5   6   29.99    1.71
 -12   5   6   32.60    1.94
 -12   5  -6   31.71    1.70
  12   5  -6   29.12    1.82
  12   5   7   27.47    1.61
 -12   5   7   32.43    1.85
 -12   5  -7   26.75    1.60
  12   5  -7   30.09    1.81
  12   5   8   20.26    1.33
 -12   5   8   21.75    1.52
  12   5  -8   18.61    1.46
  12   5   9   20.28    1.30
 -12   5   9   20.28    1.39
  12   5  10   18.69    1.26
 -12   5  10   17.89    1.33
  12   5 -10   17.87    1.42
  12   5  11    6.27    0.80
 -12   5  11    7.01    0.91
  12   5  12   31.47    1.73
 -12   5  12   33.75    1.79
  12   5  13   34.13    1.82
 -12   5  13   37.65    1.87
  12   5  14    4.52    0.70
 -12   5  14    4.51    0.71
  12   5  15   14.59    1.07
 -12   5  15   14.95    1.04
  12   5  16   25.80    1.48
 -12   5  16   29.19    1.48
  12   5  17    8.92    0.81
 -12   5  17    8.54    0.76
  12   5  18    9.48    0.79
 -12   5  18    8.93    0.71
  12   5  19    6.97    0.69
 -12   5  19    7.89    0.63
  12   5  20    0.64    0.40
 -12   5  20    0.74    0.32
  12  -5  20    1.63    0.52
  12   5  21    1.79    0.43
 -12   5  21    2.40    0.34
  12  -5  21    3.08    0.51
  12   5  22    4.88    0.49
  12  -5  22    5.54    0.55
  13   5   0  491.14   17.50
 -13   5   0  504.04   17.42
  13   5  -1    2.28    0.72
  13   5   1    1.80    0.68
 -13   5   1    0.19    0.87
 -13   5  -1    0.42    0.79
  13   5  -2    6.78    0.88
  13   5   2    7.91    0.93
 -13   5   2    7.12    1.07
 -13   5  -2    6.67    1.05
  13   5   3   13.23    1.06
  13   5  -3   11.58    1.06
  13   5  -4    3.34    0.76
  13   5   4    2.77    0.68
 -13   5   4    4.04    0.91
 -13   5  -4    2.35    0.86
  13   5   5    4.98    0.75
 -13   5  -5    3.31    0.85
  13   5   6    6.19    0.81
 -13   5   6    6.24    0.93
 -13   5  -6    5.96    0.92
  13   5   7    0.60    0.58
 -13   5   7   -0.43    0.66
  13   5   8   13.63    1.09
 -13   5   8   14.79    1.17
  13   5   9   41.98    2.08
 -13   5   9   43.33    2.16
  13   5  10   33.59    1.84
 -13   5  10   37.77    1.92
  13  -5  10   38.77    1.75
  13   5  11    4.67    0.72
 -13   5  11    5.44    0.75
  13  -5  11    4.86    0.66
  13   5  12   11.70    0.99
 -13   5  12   13.14    1.01
  13  -5  12   15.01    0.98
 -13   5  13    8.07    0.81
  13   5  13    7.95    0.82
  13  -5  13    8.74    0.79
  13   5  14    5.48    0.71
 -13   5  14    5.05    0.65
  13  -5  14    6.19    0.69
  13   5  15    3.56    0.60
 -13   5  15    4.07    0.54
  13  -5  15    4.17    0.62
 -13   5  16    5.91    0.58
  13   5  16    6.24    0.70
  13  -5  16    6.13    0.68
  13   5  17    4.74    0.59
 -13   5  17    4.36    0.49
  13  -5  17    4.80    0.61
  13   5  18    1.52    0.47
 -13   5  18    1.78    0.35
  13  -5  18    2.21    0.50
  13   5  19    0.20    0.37
  13  -5  19    0.48    0.44
  13   5  20    1.60    0.39
  13  -5  20    1.72    0.43
  13  -5  21    5.81    0.53
  14   5   0   33.77    1.82
  14   5  -1   24.97    1.53
  14   5   1   28.63    1.61
  14   5  -2    0.60    0.59
  14   5   2    0.72    0.60
  14   5  -3    1.75    0.64
  14   5   3    1.47    0.62
 -14   5   3    1.83    0.74
  14   5   4   10.51    0.98
 -14   5   4   11.32    1.10
  14   5  -4   11.00    1.00
  14   5   5    6.83    0.83
 -14   5   5    8.13    0.97
  14   5  -5    8.60    0.91
  14   5   6   12.49    1.00
 -14   5   6   11.31    1.03
  14   5  -6    9.51    0.98
  14   5   7    9.77    0.91
 -14   5   7    8.93    0.94
  14   5   8   16.90    1.16
 -14   5   8   15.13    1.15
  14   5   9   13.01    1.00
 -14   5   9   11.52    0.97
  14   5  10   11.93    0.97
 -14   5  10   12.21    0.94
  14   5  11    8.47    0.83
 -14   5  11    8.85    0.78
  14  -5  11   10.09    0.77
  14   5  12   36.08    1.78
 -14   5  12   35.44    1.70
  14  -5  12   37.96    1.68
  14   5  13   50.78    2.32
 -14   5  13   54.68    2.24
  14  -5  13   54.95    2.24
  14   5  14   26.43    1.41
 -14   5  14   24.98    1.27
  14  -5  14   29.49    1.35
  14   5  15    4.01    0.57
  14  -5  15    3.73    0.56
  14   5  16    0.90    0.40
  14  -5  16    1.05    0.44
  14   5  17    0.60    0.39
  14  -5  17    0.44    0.41
  14   5  18    1.86    0.39
  14  -5  18    2.64    0.45
  14  -5  19    0.96    0.37
  15   5   0    3.38    0.70
  15   5  -1    7.21    0.81
  15   5   1    6.23    0.78
 -15   5   1    5.53    0.83
  15   5   2    4.85    0.73
 -15   5   2    5.24    0.80
  15   5  -2    4.78    0.73
  15   5  -3    1.67    0.60
  15   5   3    1.34    0.58
 -15   5   3    0.55    0.58
  15   5  -4    2.79    0.65
  15   5   4    2.77    0.64
 -15   5   4    2.32    0.65
  15   5   5   10.48    0.93
 -15   5   5   11.24    0.94
  15   5  -5   10.36    0.94
  15   5   6   53.55    2.38
 -15   5   6   54.72    2.35
  15   5  -6   48.84    2.40
  15   5   7   11.72    0.96
 -15   5   7   13.06    0.94
  15   5  -7   11.89    1.00
  15   5   8   14.35    1.03
 -15   5   8   15.25    0.96
  15   5   9    1.54    0.55
 -15   5   9    2.23    0.47
  15   5  10    4.38    0.63
 -15   5  10    4.09    0.51
  15   5  11   36.61    1.74
  15   5  12   33.08    1.59
  15   5  13   60.70    2.56
  15  -5  13   65.12    2.48
  15   5  14   74.88    3.01
  15  -5  14   79.31    2.94
  15   5  15   23.09    1.15
  15  -5  15   23.52    1.11
  15   5  16   34.46    1.56
  15  -5  16   37.93    1.53
  16   5   0    5.89    0.71
 -16   5   0    4.69    0.68
  16   5  -1    1.56    0.56
  16   5   1    2.85    0.59
 -16   5   1    2.11    0.56
 -16   5  -1    1.49    0.54
  16   5  -2    0.45    0.51
  16   5   2   -0.05    0.46
 -16   5   2    0.15    0.41
 -16   5  -2    0.45    0.51
  16   5  -3    1.93    0.58
  16   5   3    3.40    0.60
 -16   5   3    2.71    0.53
  16   5  -4    5.18    0.70
  16   5   4    5.08    0.68
  16   5   5    7.93    0.75
  16   5  -5    6.92    0.75
  16   5   6    8.60    0.75
  16   5  -6    6.04    0.72
  16   5   7   17.85    1.07
  16   5   8    0.79    0.46
  16   5   9    5.78    0.61
  16   5  10   17.65    1.01
  16   5  11    5.87    0.58
  16   5  12    1.35    0.39
  16   5  13    5.65    0.51
  17   5   0    1.19    0.48
  17   5  -1    1.65    0.48
  17   5   1    1.83    0.48
  17   5  -2   13.12    0.90
  17   5   2   13.71    0.90
  17   5  -3    5.49    0.63
  17   5   3    5.59    0.61
  17   5  -4    0.93    0.43
  17   5   4    0.91    0.43
  17   5   5   11.36    0.78
  17   5   6    0.39    0.38
  17   5   7    2.41    0.42
  17   5   8    1.37    0.38
   0   6   0   71.94    3.09
   0   6   1    2.06    0.72
   0   6  -1    1.57    0.77
   0   6   2  386.45   13.58
   0   6  -2  382.60   13.65
   0   6  -3    1.84    0.76
   0   6   3    0.92    0.64
   0  -6   4   34.12    2.60
   0   6   4   36.41    1.82
   0   6  -4   37.45    1.95
   0   6  -5    4.25    0.85
   0  -6   5    1.63    0.88
   0   6   5    3.48    0.75
   0  -6   6  214.67    9.76
   0   6   6  243.59    8.46
   0   6  -6  226.72    8.60
   0   6  -7    0.49    0.75
   0  -6   7    0.60    0.93
   0  -6   8  289.43   12.41
   0   6  -8  306.90   10.98
   0   6  -9    4.50    0.90
   0  -6   9    3.54    1.19
   0  -6  10   31.35    2.81
   0   6 -10   30.82    1.84
   0   6 -11    0.78    0.81
   0  -6  11    0.85    1.03
   0   6  12   33.91    1.67
   0  -6  12   29.74    2.84
   0   6 -12   34.29    1.96
   0   6 -13    2.69    0.87
   0  -6  13    3.15    1.29
   0   6  13    3.35    0.58
   0   6  14  133.02    5.10
   0  -6  14  137.22    7.04
   0   6 -14  135.67    5.42
   0   6 -15    1.67    0.92
   0   6  15    1.74    0.53
   0   6  16  199.56    7.21
   0   6 -16  191.64    7.50
   0   6 -17   -0.14    0.88
   0   6  17    0.38    0.49
   0   6  18   72.31    3.02
   0   6 -18   73.19    3.34
   0   6 -19    2.23    0.89
   0   6  19    2.35    0.55
   0   6  20  159.57    5.80
   0   6 -20  150.10    6.05
   0   6 -21    0.35    0.76
   0   6  21    0.43    0.44
   0   6  22   30.11    1.46
   0   6 -22   26.42    1.65
   0   6 -23   -0.16    0.64
   0   6  23   -0.05    0.41
   0   6  24   32.10    1.46
   0   6 -24   27.11    1.55
   0   6  25   -0.02    0.35
   0   6  26   16.85    0.92
   0   6  27   -0.07    0.31
   0   6 -27   -0.47    0.56
   0   6  28    0.49    0.27
   0   6 -28    0.04    0.46
   1   6   0  151.65    5.76
  -1   6   0  153.96    5.86
   1   6   1  125.41    4.89
  -1   6   1  129.45    4.98
   1   6  -1  128.08    4.93
  -1   6  -1  127.24    5.02
  -1   6   2    7.63    0.93
   1   6  -2    6.74    0.87
  -1   6  -2    7.81    0.95
  -1   6  -2    7.74    0.84
   1   6   2    7.39    0.84
  -1   6  -3   76.06    3.31
   1   6   3   81.32    3.32
  -1   6   3   83.17    3.38
   1   6  -3   82.50    3.39
  -1   6  -3   81.05    3.47
  -1   6  -4  102.21    4.13
   1   6   4  107.81    4.12
  -1   6   4  108.42    4.18
  -1  -6   4   90.34    5.10
   1   6  -4  102.44    4.20
  -1   6  -4  107.73    4.30
   1  -6   5  184.86    8.49
   1   6   5  206.18    7.28
  -1   6   5  204.52    7.33
  -1  -6   5  181.11    8.58
   1   6  -5  194.03    7.37
  -1   6  -5  199.35    7.50
   1  -6   6   56.78    3.70
  -1   6   6   64.69    2.73
  -1  -6   6   56.59    3.77
   1   6  -6   61.44    2.81
  -1   6  -6   66.36    2.96
   1  -6   7  132.76    6.69
  -1  -6   7  138.25    6.86
   1   6  -7  140.15    5.50
  -1   6  -7  148.82    5.64
   1  -6   8   12.02    1.68
  -1   6   8   12.04    0.94
  -1  -6   8   11.14    1.68
   1   6  -8   11.50    1.12
  -1   6  -8   13.67    1.22
  -1   6   9   69.90    2.99
   1  -6   9   67.54    4.27
  -1  -6   9   65.57    4.34
   1   6  -9   72.09    3.15
  -1   6  -9   75.27    3.27
  -1   6  10  164.12    6.22
   1  -6  10  161.01    7.84
  -1  -6  10  156.59    7.92
   1   6 -10  168.21    6.37
  -1   6 -10  172.06    6.48
  -1   6  11   34.28    1.75
   1  -6  11   34.56    2.95
  -1  -6  11   37.13    3.10
   1   6 -11   33.97    1.92
  -1   6 -11   36.36    2.10
  -1   6  12   45.58    2.13
   1  -6  12   40.12    3.30
  -1  -6  12   43.19    3.54
   1   6 -12   45.32    2.29
  -1   6 -12   46.32    2.44
  -1   6  13  117.87    4.73
  -1  -6  13  123.85    6.64
   1   6 -13  121.06    4.90
  -1   6 -13  129.24    5.09
  -1   6  14   53.03    2.42
  -1  -6  14   54.04    4.00
   1   6 -14   53.46    2.61
  -1   6 -14   56.06    2.77
  -1   6  15   25.05    1.43
   1   6 -15   25.41    1.65
  -1   6 -15   27.98    1.85
   1   6  16  126.20    4.73
  -1   6  16  124.92    4.80
   1   6 -16  119.51    4.99
  -1   6 -16  124.20    5.16
   1   6  17   20.00    1.19
  -1   6  17   20.49    1.28
   1   6 -17   21.69    1.52
  -1   6 -17   21.24    1.68
   1   6  18  140.33    5.14
  -1   6  18  137.86    5.19
   1   6 -18  130.55    5.37
  -1   6 -18  132.83    5.53
   1   6  19  160.82    5.88
  -1   6  19  158.18    5.94
   1   6 -19  153.81    6.10
  -1   6 -19  159.77    6.28
   1   6  20  166.78    6.08
  -1   6  20  168.09    6.14
  -1   6 -20  156.71    6.42
   1   6  21   57.38    2.40
  -1   6  21   57.36    2.45
  -1   6 -21   54.15    2.73
  -1   6 -22    2.78    0.82
   1   6  22    2.61    0.49
  -1   6  22    2.64    0.54
  -1   6 -23    1.49    0.77
   1   6  23    0.58    0.40
  -1   6  23    0.82    0.44
  -1   6 -24    5.13    0.81
   1   6  24    5.25    0.56
  -1   6  24    5.50    0.59
  -1   6 -25    0.91    0.61
   1   6  25    1.36    0.39
  -1   6  25    1.41    0.43
  -1   6 -26    1.79    0.56
   1   6  26    1.24    0.36
  -1   6  26    1.52    0.40
  -1   6 -26    0.89    0.62
  -1   6 -27    1.40    0.51
   1   6  27    1.30    0.32
  -1   6  27    1.14    0.37
  -1   6 -27    0.71    0.56
   1   6  28    2.51    0.33
  -1   6  28    2.55    0.37
  -1   6 -28    2.22    0.50
   1   6 -28    2.13    0.53
   2   6   0    1.16    0.61
  -2   6   0    0.67    0.60
  -2   6  -1   12.84    1.00
   2   6   1   13.64    1.03
   2   6  -1   12.82    1.02
  -2   6   1   12.68    1.16
  -2   6  -1   12.64    1.14
   2   6  -2    9.97    0.92
  -2   6  -2   10.45    0.96
   2   6   2    9.81    0.89
  -2   6   2   10.26    1.03
  -2   6  -2   12.60    1.12
  -2   6   3    8.56    1.01
   2   6  -3    7.47    0.90
  -2   6  -3   10.76    0.98
   2   6   3   13.30    0.98
  -2   6  -3   12.02    1.16
  -2   6   4   27.54    1.56
  -2   6  -4   28.13    1.60
   2   6   4   29.81    1.50
  -2   6   4   28.18    1.61
   2   6  -4   26.79    1.57
  -2   6  -4   27.02    1.69
  -2  -6   4   25.85    2.31
  -2   6   5   89.29    3.73
  -2   6   5   90.10    3.51
  -2   6  -5   89.85    3.73
  -2   6   5   95.73    3.74
   2   6  -5   90.56    3.71
  -2   6  -5   97.73    3.94
  -2  -6   5   81.60    4.81
  -2   6   6   65.68    2.78
  -2   6   6   61.68    2.53
  -2   6  -6   59.89    2.80
   2   6  -6   64.31    2.79
  -2   6  -6   62.35    2.95
  -2  -6   6   61.95    3.98
  -2   6   7  118.86    4.65
  -2   6   7  124.19    4.40
  -2   6  -7  107.77    4.76
  -2  -6   7  110.46    6.05
  -2   6   8   38.24    1.89
  -2   6  -8   37.90    2.13
  -2  -6   8   35.02    3.02
  -2   6   9   17.97    1.23
  -2  -6   9   18.10    2.21
  -2   6  -9   21.32    1.55
  -2   6  10  192.17    7.33
  -2  -6  10  182.84    9.10
  -2   6  11  115.88    4.66
  -2  -6  11  113.38    6.38
  -2   6 -11  124.37    4.96
  -2   6  12   53.09    2.48
  -2  -6  12   51.70    3.94
  -2   6 -12   60.67    2.85
  -2   6  13   46.37    2.25
  -2  -6  13   43.13    3.62
  -2   6 -13   51.37    2.61
  -2   6  14   65.78    2.82
  -2   6 -14   64.23    3.18
  -2   6  15  190.82    7.25
  -2   6 -15  204.87    7.69
  -2   6  16   17.43    1.20
  -2   6 -16   15.02    1.58
  -2   6  17   99.95    3.98
  -2   6 -17   97.85    4.38
  -2   6 -18    6.30    1.19
  -2   6  18    6.62    0.77
  -2   6  19  103.37    3.94
  -2   6 -19   90.24    4.27
   2   6  20  308.45   10.74
  -2   6  20  312.81   10.87
  -2   6 -20  282.83   11.15
   2   6  21   32.27    1.52
  -2   6  21   32.43    1.62
  -2   6 -21   28.85    1.90
   2   6  22   15.47    0.95
  -2   6  22   16.82    1.04
  -2   6 -22   14.27    1.34
  -2   6 -23    2.22    0.83
   2   6  23    2.34    0.44
  -2   6  23    2.31    0.52
   2   6  24   20.24    1.06
  -2   6  24   19.97    1.11
  -2   6 -24   18.24    1.32
  -2   6 -24   18.04    1.28
  -2   6 -25    1.92    0.68
   2   6  25    3.49    0.46
  -2   6  25    3.74    0.50
  -2   6 -25    4.19    0.76
   2   6  26   21.66    1.05
  -2   6  26   22.80    1.12
  -2   6 -26   21.62    1.26
  -2   6 -26   18.96    1.21
   2   6  27   18.62    0.90
  -2   6  27   18.69    0.95
  -2   6 -27   17.02    1.02
  -2   6 -27   16.29    1.02
  -2   6 -28    4.34    0.54
  -2   6  28    3.97    0.42
  -2   6 -28    4.44    0.51
  -3   6   0    1.92    0.67
  -3   6   1   24.23    1.39
  -3   6  -1   23.00    1.40
  -3   6  -2    1.08    0.76
  -3   6  -2    2.04    0.69
   3   6   2    2.10    0.60
  -3   6   3   21.04    1.22
  -3   6  -3   19.70    1.35
   3   6   3   24.89    1.31
  -3   6  -3   23.97    1.58
  -3   6   4   18.66    1.25
  -3   6   4   15.33    1.05
  -3   6  -4   18.18    1.27
  -3   6  -4   18.74    1.39
  -3  -6   4   17.27    1.93
  -3  -6   5   43.24    3.32
  -3   6   5   50.45    2.37
  -3   6   5   51.34    2.13
  -3   6  -5   48.07    2.34
  -3   6  -5   50.76    2.52
  -3  -6   6   91.84    5.38
  -3   6   6  102.90    4.10
  -3   6   6  102.08    3.78
  -3   6  -6   93.15    4.04
  -3   6   6  103.08    4.02
  -3   6  -6   97.24    4.21
  -3  -6   7  523.36   20.78
  -3   6   7  526.14   18.85
  -3   6   7  546.42   18.52
  -3   6  -7  511.70   18.82
  -3   6   7  563.57   18.79
  -3   6  -7  541.24   19.03
  -3  -6   8   72.13    4.67
  -3   6   8   72.91    3.25
  -3   6   8   80.70    2.95
  -3   6  -8   71.84    3.30
  -3   6  -8   74.98    3.45
  -3  -6   9   23.08    2.53
  -3   6   9   25.97    1.54
  -3   6  -9   24.41    1.63
  -3   6  -9   24.89    1.75
  -3  -6  10  108.62    6.30
  -3   6  10  115.24    4.59
  -3   6 -10  117.25    4.82
  -3   6  11   76.24    3.31
  -3   6 -11   81.15    3.62
  -3  -6  11   70.27    4.83
  -3   6  12   18.03    1.23
  -3  -6  12   14.84    2.15
  -3   6 -12   18.05    1.61
  -3  -6  13   74.48    5.00
  -3   6 -13   79.61    3.68
  -3   6  14   18.07    1.26
  -3   6 -14   22.04    1.73
  -3   6  15   21.00    1.39
  -3   6 -15   25.47    1.88
  -3   6  16   41.25    2.09
  -3   6 -16   48.04    2.66
  -3   6  17   48.97    2.33
  -3   6 -17   50.54    2.81
  -3   6  18   54.30    2.43
  -3   6 -18   52.08    2.89
  -3   6  19  114.27    4.50
  -3   6 -19  115.34    4.95
  -3   6  20   53.88    2.35
  -3   6 -20   49.15    2.55
  -3   6 -20   49.69    2.74
  -3   6  21   30.72    1.57
  -3   6 -21   29.76    1.82
  -3   6 -21   29.76    1.97
  -3   6  22   41.28    1.92
  -3   6 -22   43.56    2.20
  -3   6 -22   39.89    2.27
  -3   6  23   32.43    1.55
  -3   6 -23   30.96    1.76
  -3   6 -23   29.30    1.82
  -3   6  24   21.45    1.16
  -3   6 -24   22.69    1.38
  -3   6  25   42.20    1.82
  -3   6 -25   43.01    1.95
  -3   6 -25   37.94    1.97
  -3   6 -26    3.62    0.68
  -3   6  26    3.57    0.47
  -3   6 -26    3.18    0.61
  -3   6 -27    3.74    0.61
  -3   6  27    4.32    0.46
  -3   6 -27    4.26    0.56
  -3   6 -28    5.92    0.58
  -3   6  28    5.85    0.47
  -4   6   0  132.55    5.13
  -4   6   0  133.99    5.27
  -4   6   1    2.30    0.85
  -4   6  -1    3.16    0.84
  -4   6   1    1.31    0.57
  -4   6   1    2.69    0.68
  -4   6  -1    2.56    0.74
  -4   6   2    3.71    0.86
  -4   6   2    3.37    0.62
  -4   6  -2    4.30    0.81
  -4   6   3    4.65    0.90
  -4   6   3    3.50    0.61
  -4   6  -3    4.12    0.82
  -4  -6   4  125.56    6.62
  -4   6   4  134.80    4.95
  -4   6  -4  135.35    5.24
  -4   6   4  132.37    5.18
  -4  -6   5  193.48    9.16
  -4   6   5  197.56    7.55
  -4   6   5  199.59    7.19
  -4   6  -5  204.92    7.53
  -4   6   5  205.57    7.45
  -4  -6   6   49.10    3.71
  -4   6   6   50.29    2.50
  -4   6   6   50.54    2.11
  -4   6  -6   47.53    2.44
  -4   6   6   52.65    2.43
  -4   6   7   48.17    2.44
  -4   6   7   50.93    2.09
  -4   6  -7   49.05    2.48
  -4   6   7   54.62    2.39
  -4  -6   8   64.49    4.54
  -4   6   8   70.03    3.08
  -4   6   8   68.89    2.66
  -4   6  -8   65.24    3.07
  -4  -6   9  178.40    8.65
  -4   6   9  168.55    6.55
  -4   6   9  174.37    6.11
  -4   6  -9  165.89    6.54
  -4   6  -9  169.15    6.73
  -4  -6  10   45.82    3.70
  -4   6  10   44.34    2.22
  -4   6 -10   41.54    2.29
  -4   6 -10   47.39    2.55
  -4   6 -11   13.18    1.39
  -4   6  11   14.04    1.16
  -4   6 -11   13.32    1.27
  -4  -6  11   13.27    2.09
  -4   6  12   14.21    1.16
  -4  -6  12   14.07    2.11
  -4   6 -12   15.68    1.51
  -4   6  13   22.80    1.48
  -4  -6  13   20.86    2.57
  -4   6 -13   26.00    1.89
  -4   6 -14   12.37    1.49
  -4   6  14   12.36    1.07
  -4   6 -14   11.03    1.24
  -4   6 -15    1.19    1.13
  -4   6  15    1.64    0.68
  -4   6 -15    0.89    0.92
  -4   6 -16    7.58    1.34
  -4   6  16    6.28    0.84
  -4   6 -16    5.94    1.07
  -4   6  17  207.62    7.80
  -4   6 -17  203.32    7.96
  -4   6  18   16.55    1.19
  -4   6 -18   16.69    1.46
  -4   6 -18   18.04    1.71
  -4   6  19   21.55    1.35
  -4   6 -19   22.15    1.61
  -4   6 -19   21.45    1.83
  -4   6  20   18.43    1.18
  -4   6 -20   19.64    1.46
  -4   6 -20   16.80    1.63
  -4   6  21   23.86    1.35
  -4   6 -21   23.90    1.58
  -4   6 -21   25.12    1.82
  -4   6  22   56.40    2.42
  -4   6 -22   56.45    2.59
  -4   6 -22   54.46    2.79
  -4   6 -23    1.17    0.88
  -4   6  23    2.36    0.52
  -4   6 -23    1.37    0.74
  -4   6  24   22.98    1.20
  -4   6 -24   22.94    1.36
  -4   6 -24   20.06    1.44
  -4   6  25   82.60    3.11
  -4   6 -25   82.55    3.18
  -4   6  26   21.55    1.05
  -4   6 -26   19.89    1.10
  -4   6 -26   18.08    1.21
  -4   6  27   13.37    0.74
  -4   6 -27   11.28    0.73
  -4   6 -27   12.10    0.89
  -4   6  28   28.31    1.19
  -4   6 -28   25.07    1.28
  -5   6   0    2.17    0.87
  -5   6   0    0.97    0.59
  -5   6   0    2.36    0.78
  -5   6   1    7.60    1.06
  -5   6  -1    6.64    1.01
  -5   6   1    7.05    0.74
  -5   6  -1    7.16    0.94
  -5   6   2   21.35    1.23
  -5   6  -2   20.79    1.46
  -5   6   2   23.72    1.54
  -5   6  -2   22.65    1.56
  -5   6   3   36.13    1.68
  -5   6  -3   34.44    1.73
  -5   6  -3   35.38    1.95
  -5   6   3   37.40    1.98
  -5   6  -3   36.70    2.07
  -5   6   4   58.27    2.40
  -5   6  -4   55.02    2.49
  -5   6  -4   60.81    2.75
  -5   6   4   58.24    2.66
  -5   6  -4   62.05    2.88
  -5  -6   5  116.77    6.38
  -5   6   5  116.44    4.28
  -5   6  -5  115.03    4.64
  -5   6   5  113.94    4.54
  -5   6  -5  110.46    4.74
  -5  -6   6  318.68   13.78
  -5   6   6  313.83   11.67
  -5   6   6  326.58   11.22
  -5   6  -6  314.96   11.61
  -5   6   6  328.89   11.51
  -5   6  -6  318.14   11.77
  -5  -6   7  123.68    6.81
  -5   6   7  121.84    4.96
  -5   6   7  122.82    4.49
  -5   6  -7  117.65    4.90
  -5   6   7  127.74    4.80
  -5   6  -7  116.50    5.01
  -5   6  -8    3.90    1.07
  -5  -6   8    3.14    1.38
  -5   6   8    3.07    0.75
  -5   6   8    3.63    0.54
  -5   6  -8    3.16    0.98
  -5  -6   9   30.16    3.05
  -5   6   9   28.99    1.77
   5  -6   9   22.49    2.28
  -5   6   9   30.40    1.36
  -5   6  -9   29.44    1.84
  -5   6  10  105.29    4.45
   5  -6  10   97.31    5.57
  -5   6  10  111.66    4.03
  -5  -6  11   19.67    2.53
   5  -6  11   14.51    1.93
  -5   6  11   19.91    1.38
  -5   6  11   18.27    1.03
  -5  -6  12    4.51    1.51
   5  -6  12    4.62    1.29
  -5   6  12    3.34    0.76
  -5   6  13    5.12    0.82
  -5   6 -13    3.80    0.65
  -5   6 -13    4.62    1.04
  -5   6  14    1.50    0.70
  -5   6 -14    1.09    0.58
  -5   6 -14    1.93    0.96
  -5   6  15    2.41    0.70
  -5   6 -15    2.69    0.97
  -5   6  16   22.52    1.43
  -5   6 -16   22.92    1.64
  -5   6 -17    8.86    1.40
  -5   6  17    8.08    0.92
  -5   6 -17    7.91    1.14
  -5   6 -18   11.30    1.51
  -5   6  18   12.95    1.04
  -5   6 -18   10.93    1.22
  -5   6 -19    1.17    1.09
  -5   6  19    0.81    0.54
  -5   6 -19    1.27    0.84
  -5   6  20   16.12    1.12
  -5   6 -20   16.23    1.32
  -5   6 -20   17.58    1.62
  -5   6  21   94.96    3.85
  -5   6 -21   97.39    4.00
  -5   6 -21  103.80    4.32
  -5   6  22  110.01    4.32
  -5   6 -22  114.67    4.46
  -5   6 -22  116.15    4.74
  -5   6  23   34.03    1.67
  -5   6 -23   36.58    1.82
  -5   6 -23   38.82    2.06
  -5   6 -24    2.53    0.81
  -5   6  24    2.05    0.47
  -5   6 -24    1.64    0.62
  -5   6  25   15.67    0.90
  -5   6 -25   15.55    0.99
  -5   6 -25   15.00    1.15
  -5   6  26   21.76    1.04
  -5   6 -26   19.69    1.04
  -5   6 -26   19.64    1.22
  -5   6 -27    3.84    0.61
  -5   6  27    4.25    0.43
  -6   6   0   20.02    1.50
  -6   6  -1  127.46    5.00
  -6   6   1  128.75    4.73
  -6   6   1  124.79    5.04
  -6   6  -1  123.60    5.08
  -6   6   2  209.22    7.47
  -6   6  -2  204.17    7.76
  -6   6  -2  205.64    7.53
  -6   6   2  212.01    7.83
  -6   6  -2  216.21    7.92
  -6   6   3   92.00    3.50
  -6   6  -3   85.98    3.77
  -6   6  -3   89.81    3.56
  -6   6   3   90.89    3.80
  -6   6  -3   94.31    3.93
  -6   6   4   66.69    2.55
  -6   6  -4   61.22    2.66
  -6   6  -4   60.71    2.92
  -6   6   4   61.86    2.83
  -6   6  -4   61.00    3.00
  -6  -6   5   94.04    5.68
  -6   6   5   94.47    3.49
  -6   6  -5   88.02    3.60
  -6   6  -5   95.13    3.91
  -6   6   5   89.50    3.76
  -6   6  -5   89.07    3.98
  -6   6   6   60.93    2.99
   6  -6   6   63.31    3.95
  -6  -6   6   64.30    4.58
  -6   6   6   66.72    2.53
  -6   6  -6   60.48    2.67
  -6   6  -6   65.12    2.98
  -6   6   6   62.77    2.80
  -6   6  -6   60.82    3.03
   6  -6   7   12.08    1.68
  -6   6   7   10.60    1.14
  -6   6   7   13.95    0.88
  -6   6  -7   12.56    0.97
  -6   6  -7   11.94    1.23
  -6  -6   7   13.94    2.15
  -6   6  -7   15.27    1.37
  -6   6   8   19.07    1.46
   6  -6   8   19.09    2.14
  -6   6   8   21.00    1.05
  -6   6  -8   17.55    1.17
  -6   6  -8   18.99    1.55
  -6  -6   8   19.69    2.55
  -6   6  -8   17.73    1.52
  -6   6   9  259.06    9.48
  -6  -6   9  263.65   11.88
   6  -6   9  247.72   10.92
  -6   6   9  257.37    8.99
  -6   6  -9  249.84    9.09
  -6   6  -9  258.47    9.55
   6  -6  10   16.58    1.98
  -6   6  10   19.40    1.45
  -6   6  10   18.89    1.09
  -6  -6  10   18.22    2.47
  -6   6 -10   18.23    1.17
  -6   6 -10   17.68    1.55
  -6   6  11  126.70    5.03
  -6   6  11  121.02    4.62
  -6   6 -11  126.71    4.69
  -6   6 -11  123.21    5.01
  -6   6 -11  123.48    5.16
  -6   6 -12    9.23    1.24
  -6   6  12    9.65    1.06
  -6   6  12    9.75    0.86
  -6   6 -12    7.83    0.80
  -6   6 -12    8.95    1.15
  -6   6 -13    6.36    1.21
  -6   6  13    6.06    0.90
  -6   6 -13    5.12    0.69
  -6   6 -13    5.46    1.10
  -6   6 -14   11.31    1.41
  -6   6  14   13.65    1.16
  -6   6 -14   11.89    1.28
  -6   6 -15    0.37    1.06
  -6   6  15    0.08    0.66
  -6   6 -15   -0.32    0.87
  -6   6  16    2.09    0.70
  -6   6 -16    1.25    0.89
  -6   6  17    2.29    0.67
  -6   6 -17    2.33    0.92
  -6   6  18   11.45    1.02
  -6   6 -18   12.36    1.20
  -6   6  19    1.39    0.61
  -6   6 -19    2.37    0.91
  -6   6  20   16.53    1.13
  -6   6 -20   16.36    1.29
  -6   6  21   84.56    3.50
  -6   6 -21   92.28    3.65
  -6   6 -22   51.11    2.32
  -6   6 -23   14.80    1.05
  -6   6 -24    3.56    0.85
  -6   6 -24    4.23    0.66
  -6   6 -25   16.58    1.16
  -6   6 -26   10.25    0.87
  -6   6 -27    0.83    0.50
  -7   6   0  112.12    4.59
  -7   6  -1   51.82    2.16
  -7   6   1   48.15    2.46
  -7   6  -1   46.64    2.47
  -7   6   2   74.46    2.82
  -7   6  -2   68.91    2.84
  -7   6   2   71.20    3.14
  -7   6  -2   65.27    3.18
   7  -6   3  169.13    7.92
  -7   6   3  186.96    6.32
  -7   6  -3  168.86    6.65
  -7   6  -3  173.49    6.35
  -7   6   3  169.55    6.60
  -7   6  -3  170.16    6.73
   7  -6   4   56.68    3.76
  -7   6   4   63.55    2.44
  -7   6  -4   63.11    2.87
  -7   6  -4   58.20    2.50
  -7   6   4   54.03    2.67
  -7   6  -4   60.97    2.90
   7  -6   5   30.40    2.73
  -7   6  -5   33.84    1.70
  -7   6  -5   35.26    2.05
  -7  -6   5   35.47    3.40
  -7   6   5   38.31    1.95
  -7   6  -5   32.51    2.05
   7  -6   6   96.53    5.25
  -7   6   6  110.86    4.70
   7  -6   6  108.56    5.82
  -7   6   6  119.19    4.17
  -7  -6   6  112.38    6.58
  -7   6  -6  108.63    4.21
  -7   6  -6  108.81    4.55
  -7   6   6  115.98    4.44
  -7   6  -6  106.18    4.61
   7  -6   7   41.67    2.99
  -7   6   7   47.56    2.48
   7  -6   7   44.73    3.39
  -7  -6   7   44.51    3.85
  -7   6   7   49.12    2.02
  -7   6  -7   44.71    2.04
  -7   6  -7   46.62    2.48
  -7   6  -8    3.23    0.96
  -7  -6   8    0.38    1.06
   7  -6   8    1.35    1.05
   7  -6   8    0.85    0.94
  -7   6   8    1.58    0.79
  -7   6   8    2.24    0.60
  -7   6  -8    2.08    0.61
  -7   6   9  140.81    5.46
  -7   6   9  142.45    5.01
  -7   6  -9  128.92    4.97
  -7   6  -9  124.81    5.39
  -7   6  10  114.65    4.71
  -7   6  10  112.77    4.30
  -7   6 -10  111.99    4.26
  -7   6 -10  117.59    4.69
  -7   6 -10  111.77    4.74
  -7   6  11  103.02    4.50
  -7   6  11  104.69    4.17
  -7   6 -11  111.45    4.11
  -7   6 -11  112.92    4.54
  -7   6 -11  113.16    4.66
  -7   6 -12    4.56    1.11
  -7   6  12    6.15    0.98
  -7   6  12    4.61    0.78
  -7   6 -12    5.43    0.63
  -7   6 -12    5.07    1.04
  -7   6 -13    6.15    1.14
  -7   6  13    6.86    0.97
  -7   6  13    5.31    0.84
  -7   6 -13    6.81    1.13
  -7   6 -14   10.59    1.28
  -7   6  14   11.26    1.07
  -7   6 -14   12.05    1.25
  -7   6 -15   -0.20    0.97
  -7   6  15    0.83    0.70
  -7   6 -15    1.00    0.91
  -7   6 -16    4.48    1.13
  -7   6 -16    3.91    0.96
  -7   6 -17    3.93    1.07
  -7   6 -17    3.92    0.94
  -7   6 -18   24.40    1.55
  -7   6 -18   22.84    1.74
  -7   6 -19   10.90    1.29
  -7   6 -19    9.65    1.07
  -7   6 -20    7.07    1.19
  -7   6 -20    7.51    0.93
  -7   6 -21    4.69    1.02
  -7   6 -21    4.56    0.81
  -7   6 -22   15.55    1.07
  -7   6 -22   14.61    1.29
  -7   6 -23    7.42    0.98
  -7   6  23    7.38    0.64
  -7   6 -23    7.18    0.73
  -7   6  24    0.73    0.37
  -7   6  25    4.57    0.46
  -7   6  26   13.57    0.73
  -8   6   0  161.80    5.81
  -8   6   0  157.51    6.17
   8  -6   1   57.16    3.76
  -8   6  -1   62.09    2.46
  -8   6   1   57.95    2.78
  -8   6  -1   58.79    2.84
   8  -6   2   60.37    3.88
  -8   6   2   62.86    2.52
  -8   6  -2   62.79    2.54
  -8   6   2   59.24    2.81
  -8   6  -2   63.39    2.98
   8  -6   3  244.44   10.62
  -8   6   3  252.95    8.79
  -8   6  -3  255.79    8.81
  -8   6   3  238.81    9.05
  -8   6  -3  241.39    9.20
   8  -6   4  193.53    9.08
  -8   6   4  208.20    7.34
  -8   6  -4  211.10    7.35
  -8   6   4  199.47    7.57
  -8   6  -4  201.12    7.76
   8  -6   5   57.16    3.88
  -8   6   5   61.50    2.47
  -8   6  -5   59.37    2.47
  -8   6   5   63.36    2.71
  -8   6  -5   57.02    2.87
  -8   6   6   37.47    2.17
  -8   6   6   38.84    1.76
  -8   6  -6   36.55    1.68
  -8   6  -6   36.45    2.07
  -8   6  -7    1.97    0.93
  -8   6   7    1.74    0.78
  -8   6   7    1.90    0.65
  -8   6  -7    1.40    0.51
  -8   6   8   85.49    3.76
  -8   6   8   85.50    3.36
  -8   6  -8   86.19    3.71
  -8   6  -8   79.53    3.68
  -8   6   9   87.34    3.78
  -8   6   9   80.40    3.35
  -8   6  -9   84.62    3.26
  -8   6  -9   85.84    3.71
  -8   6  -9   85.03    3.72
  -8   6  10   43.64    2.08
  -8   6 -10   43.91    1.91
  -8   6 -10   48.12    2.41
  -8   6 -10   45.02    2.38
  -8   6 -11   11.72    1.27
  -8   6 -11   13.37    0.82
  -8   6  11    9.26    0.96
  -8   6 -11   11.41    1.27
  -8   6 -12   10.87    1.22
  -8   6  12   10.44    1.08
  -8   6  13   14.92    1.16
  -8   6 -13   17.78    1.41
  -8   6 -13   14.81    1.35
  -8   6 -14    0.61    0.87
  -8   6 -14    1.32    0.91
  -8   6 -15   57.19    2.69
  -8   6 -15   55.31    2.78
  -8   6 -16   21.24    1.48
  -8   6 -16   21.50    1.59
  -8   6 -17    3.10    0.94
  -8   6  17    1.93    0.69
  -8   6 -17    2.07    0.83
  -8   6 -18    5.43    1.02
  -8   6  18    4.67    0.72
  -8   6 -18    5.86    0.91
  -8   6 -19    0.41    0.85
  -8   6  19    0.40    0.52
  -8   6 -19    0.33    0.69
  -8   6 -20   -0.58    0.82
  -8   6  20    0.76    0.46
  -8   6 -20    1.30    0.67
  -8   6  21   18.96    1.12
  -8   6 -21   22.42    1.46
  -8   6  22   13.54    0.87
  -8   6 -22   14.14    1.15
  -8   6 -23    6.75    0.88
  -8   6  23    7.16    0.60
  -8   6 -24    5.63    0.76
  -8   6  24    5.15    0.49
  -8   6 -25    5.81    0.69
  -8   6  25    5.89    0.46
  -9   6   0    3.33    0.93
  -9   6   0    8.97    0.76
  -9   6  -1   64.84    2.54
  -9   6   1   60.77    2.80
  -9   6  -1   59.42    2.86
  -9   6  -2  102.58    3.79
  -9   6   2   99.41    4.04
  -9   6  -2   94.72    4.13
  -9   6   3  930.81   30.83
  -9   6  -3  908.21   30.80
  -9   6   3  875.75   31.01
  -9   6  -3  878.16   31.17
  -9   6   4   77.90    3.04
  -9   6  -4   74.10    2.94
  -9   6   4   77.16    3.19
  -9   6  -4   70.17    3.34
  -9   6   5   63.63    2.72
  -9   6  -5   69.95    2.65
  -9   6  -5   61.55    2.99
  -9   6  -6    9.02    1.12
  -9   6  -6    9.78    0.74
  -9   6   6    7.86    0.88
  -9   6   7   14.19    1.12
  -9   6  -7   16.21    0.94
  -9   6  -7   12.81    1.24
  -9   6  -8    2.64    0.88
  -9   6   8    2.19    0.79
  -9   6  -8    3.83    0.56
  -9   6   9   17.64    1.30
  -9   6  -9   19.54    1.04
  -9   6  -9   17.61    1.38
  -9   6 -10    7.08    1.02
  -9   6 -10   10.53    0.73
  -9   6  10    7.99    1.03
  -9   6 -11   10.74    1.14
  -9   6  11   11.48    1.22
  -9   6  11    8.32    1.06
  -9   6 -12    5.56    0.95
  -9   6  12    7.14    0.98
  -9   6  12    4.56    0.89
  -9   6 -13    7.53    1.06
  -9   6  13    8.32    1.01
  -9   6 -14    4.90    0.91
  -9   6  14    6.35    0.90
  -9   6  15   23.06    1.44
  -9   6 -15   22.27    1.52
  -9   6 -16    1.37    0.81
  -9   6  16    1.17    0.62
  -9   6 -17    9.49    1.04
  -9   6  17    8.54    0.84
  -9   6 -18    3.33    0.84
  -9   6  18    3.10    0.62
  -9   6 -19    5.31    0.88
  -9   6  19    3.38    0.58
  -9   6 -20    1.23    0.73
  -9   6  20    1.71    0.48
  -9   6 -21    5.65    0.83
  -9   6  21    7.27    0.63
  -9   6 -22    7.80    0.87
  -9   6  22    8.83    0.64
  -9   6  23   43.55    1.85
  -9   6 -23   50.32    2.07
  -9   6 -24    1.77    0.55
  -9   6  24    2.37    0.33
 -10   6   0  165.61    5.92
 -10   6   0  156.31    6.10
 -10   6   1  208.00    7.60
 -10   6  -1  217.04    7.59
 -10   6  -1  207.73    7.82
 -10   6  -2   32.68    1.58
 -10   6  -2   32.70    1.85
 -10   6  -3   93.38    3.56
 -10   6  -3   89.67    3.83
 -10   6   4   72.16    3.02
 -10   6  -4   72.40    2.90
 -10   6  -4   73.98    3.23
 -10   6   5   29.08    1.95
 -10   6   5   28.73    1.64
 -10   6  -5   31.34    1.47
 -10   6  -5   29.90    1.80
 -10   6   6   23.08    1.68
 -10   6   6   20.27    1.39
 -10   6  -6   20.50    1.16
 -10   6  -6   21.25    1.45
 -10   6  -7    8.90    1.07
 -10   6   7   10.79    1.20
 -10   6  -7    9.50    0.78
 -10   6   7    7.88    1.00
 -10   6   8   27.69    1.73
 -10   6   8   23.01    1.55
 -10   6  -8   25.70    1.29
 -10   6  -8   24.47    1.59
 -10   6  -9    6.72    0.96
 -10   6   9    6.83    1.00
 -10   6  -9    7.26    0.70
 -10   6   9    6.05    0.97
 -10   6 -10    5.79    0.89
 -10   6  10    4.44    0.92
 -10   6  10    3.65    0.92
 -10   6 -10    5.94    0.63
 -10   6 -11    5.63    0.92
 -10   6  11    5.49    0.89
 -10   6 -12    1.22    0.72
 -10   6  12    1.44    0.72
 -10   6 -13    8.43    0.99
 -10   6  13    9.59    0.98
 -10   6  14   26.05    1.49
 -10   6 -14   22.95    1.47
 -10   6 -15   10.27    1.01
 -10   6  15   12.91    1.02
 -10   6  16   12.86    1.00
 -10   6 -16   13.45    1.10
 -10   6 -17    5.52    0.80
 -10   6  17    5.41    0.70
 -10   6 -18    1.25    0.68
 -10   6  18    1.77    0.50
 -10   6 -19    5.14    0.76
 -10   6  19    4.31    0.54
 -10   6 -20    5.55    0.77
 -10   6  20    4.83    0.54
 -10   6 -21    6.00    0.72
 -10   6  21    6.30    0.54
 -10   6 -22    2.26    0.56
 -10   6  22    1.50    0.34
 -10   6  23   11.34    0.62
 -10   6 -23   11.42    0.79
 -11   6   0  315.19   11.15
 -11   6   1    8.93    1.01
 -11   6  -1    8.50    0.92
 -11   6   2    0.42    0.82
 -11   6  -2    0.59    0.68
 -11   6  -3   14.77    1.06
 -11   6   4   68.49    3.21
 -11   6  -4   65.01    2.75
 -11   6   5   46.63    2.44
 -11   6  -5   47.68    2.04
 -11   6  -6    3.25    0.82
 -11   6   6    4.83    0.94
 -11   6   6    2.95    0.97
 -11   6  -6    4.88    0.69
 -11   6   7   16.73    1.38
 -11   6   7   15.45    1.31
 -11   6  -7   15.63    1.04
 -11   6  -7   14.97    1.20
 -11   6  -8    0.84    0.72
 -11   6   8    2.17    0.84
 -11   6   8    1.10    0.88
 -11   6  -8    2.39    0.63
 -11   6   9   80.57    3.34
 -11   6  -9   75.39    3.13
 -11   6  10   22.36    1.49
 -11   6 -10   23.11    1.42
 -11   6  11   18.15    1.32
 -11   6 -11   18.43    1.27
 -11   6  12   13.05    1.09
 -11   6 -12   12.91    1.06
 -11   6 -13    5.56    0.81
 -11   6  13    6.70    0.84
 -11   6  14   22.63    1.33
 -11   6 -14   21.75    1.33
 -11   6  15   11.38    0.90
 -11   6 -15   10.44    0.92
 -11   6  16    9.25    0.79
 -11   6 -16    9.24    0.86
 -11   6 -17    1.16    0.60
 -11   6  17    1.05    0.46
 -11   6  18    6.92    0.64
 -11   6 -18    7.59    0.76
 -11   6 -19    3.99    0.59
 -11   6  19    3.59    0.48
 -11   6 -20    5.76    0.63
 -11   6  20    5.42    0.49
 -11   6  21    8.18    0.55
 -11   6 -21    9.70    0.68
  11  -6  22   15.12    0.78
 -12   6   0   69.33    2.97
 -12   6   1   45.39    2.24
 -12   6  -1   44.80    2.15
 -12   6   2    5.50    0.98
 -12   6  -2    6.56    0.96
 -12   6   3    2.26    0.91
 -12   6   3    0.62    0.91
 -12   6  -3    0.55    0.76
 -12   6   4    6.25    0.99
 -12   6  -4    4.60    0.87
 -12   6   5   10.81    1.15
 -12   6  -5    7.20    0.91
 -12   6   6   23.52    1.51
 -12   6   6   20.48    1.40
 -12   6   7   13.04    1.15
 -12   6  -7    7.04    0.87
 -12   6   8   26.77    1.57
 -12   6  -8   19.40    1.29
 -12   6   9   11.37    1.07
 -12   6  10    9.99    1.00
 -12   6  11   65.39    2.84
 -12   6  12   25.24    1.45
 -12   6  13   37.05    1.80
 -12   6  14   53.66    2.32
 -12   6  15    9.27    0.75
 -12   6  16    0.49    0.40
 -12   6  17    0.77    0.37
 -12   6  18    1.08    0.35
  12  -6  18    1.90    0.43
 -12   6  19    1.47    0.33
  12  -6  19    1.89    0.41
  12  -6  20    0.79    0.33
 -13   6   0   -0.73    0.79
 -13   6   1    1.58    0.83
 -13   6  -1    1.44    0.76
 -13   6   2   12.80    1.21
 -13   6  -2   11.40    1.10
 -13   6   3    4.62    0.91
 -13   6  -3    2.16    0.78
 -13   6   4    2.87    0.79
 -13   6  -4    0.97    0.71
 -13   6   5    4.13    0.86
 -13   6  -5    3.75    0.78
 -13   6   6   20.38    1.34
 -13   6  -6   14.48    1.12
 -13   6   7    1.34    0.62
 -13   6  -7    0.60    0.63
 -13   6   8   30.24    1.66
 -13   6   9    3.76    0.70
 -13   6  10   31.74    1.65
 -13   6  11    4.05    0.66
 -13   6  12   33.52    1.62
 -13   6  13    1.15    0.45
  13  -6  13    0.98    0.43
 -13   6  14    8.98    0.71
  13  -6  14    8.59    0.65
 -13   6  15   15.59    0.90
  13  -6  15   17.03    0.89
 -13   6  16    4.45    0.45
  13  -6  16    4.92    0.49
 -13   6  17    0.19    0.26
  13  -6  17    0.25    0.33
 -14   6   0    8.38    0.98
 -14   6   1   26.99    1.60
 -14   6   2   15.76    1.21
 -14   6   3   11.94    1.10
 -14   6   4   27.61    1.60
 -14   6   5    2.70    0.67
 -14   6   6   17.72    1.20
 -14   6   7   12.66    0.98
 -14   6   8    7.30    0.78
 -14   6   9   14.94    1.01
 -14   6  10    1.06    0.46
 -14   6  11   18.11    1.04
 -14   6  12   40.42    1.75
 -14   6  13    4.16    0.46
 -14   6  14   10.70    0.65
 -15   6   0   16.81    1.18
 -15   6   1    5.87    0.76
 -15   6  -1    5.43    0.76
 -15   6   2    2.89    0.62
 -15   6  -2    2.34    0.65
 -15   6   3    4.78    0.68
 -15   6  -3    3.78    0.67
 -15   6   4    2.15    0.59
 -15   6   5    3.52    0.58
 -15   6   6    6.77    0.69
 -15   6   7    6.60    0.64
 -15   6   8    1.56    0.41
 -15   6   9   11.03    0.72
 -15   6  10   31.73    1.38
 -16   6   0    0.56    0.41
 -16   6   1   14.20    0.89
 -16   6  -1   14.49    0.92
 -16   6   2    2.74    0.47
 -16   6  -2    1.60    0.48
 -16   6   3    1.46    0.36
 -16   6  -3    1.13    0.46
 -16   6   4    1.76    0.38
 -16   6  -4    1.22    0.46
 -16   6   5    7.70    0.54
 -16   6  -5    5.18    0.61
 -16   6  -6    0.46    0.39
 -16   6  -7    6.57    0.61
   0   7   0   12.35    1.18
   0   7  -1    0.60    0.80
   0   7   1    1.67    0.78
   0   7  -2    6.02    1.02
   0   7   2    6.91    0.98
   0   7  -3    0.47    0.86
   0   7   3    0.37    0.77
   0   7   4  347.92   12.32
   0   7  -4  342.42   12.44
   0   7  -5    0.90    0.88
   0   7  -5    1.93    0.75
   0   7  -6  179.73    6.91
   0   7  -6  190.44    7.07
   0   7  -7    0.49    0.82
   0   7  -7    0.04    0.73
   0   7  -8   12.02    1.15
   0   7  -8   15.21    1.32
   0   7  -9    1.75    0.85
   0   7 -10  134.36    5.37
   0   7 -11    1.81    0.85
   0   7 -12   32.14    1.91
   0   7 -13    0.34    0.81
   0   7 -14   95.73    4.06
   0   7 -15    1.12    0.77
   0   7 -16    8.34    1.08
   0   7 -17    0.66    0.75
   0   7 -18   10.15    1.05
   0   7  18    9.83    0.75
   0   7 -19    1.36    0.69
   0   7  19    1.18    0.39
   0   7  20   24.68    1.22
   0   7 -20   23.39    1.42
   0   7  21    0.16    0.32
   0   7  22    5.89    0.52
   0   7  23    0.56    0.32
   0   7 -24    6.02    0.78
   0   7 -25    0.44    0.54
   0   7 -26    0.63    0.45
  -1   7   0    0.19    0.81
   1   7   0    0.27    0.76
   1   7  -1    4.17    0.86
  -1   7  -1    3.25    0.90
   1   7   1    4.45    0.87
  -1   7   1    4.47    0.97
   1   7  -2    2.27    0.76
  -1   7  -2    1.05    0.91
   1   7   2    1.60    0.73
  -1   7   2    2.22    0.88
  -1   7  -3   22.33    1.48
   1   7   3   26.94    1.56
  -1   7   3   25.92    1.62
   1   7  -3   26.03    1.58
  -1   7  -3   24.78    1.72
  -1   7  -4   17.02    1.27
  -1   7   4   20.61    1.43
   1   7  -4   18.90    1.38
  -1   7  -4   17.69    1.50
  -1   7   5   59.92    2.54
  -1   7  -5   58.09    2.73
   1   7  -5   59.17    2.81
  -1   7  -5   65.35    2.96
  -1   7   6   42.75    1.86
  -1   7  -6   39.10    2.08
   1   7  -6   36.89    2.03
   1   7  -6   42.05    2.14
  -1   7  -6   41.72    2.26
  -1   7  -7   38.14    2.03
   1   7  -7   36.20    2.06
  -1   7  -7   41.25    2.22
  -1   7  -8   62.82    2.93
   1   7  -8   63.92    2.96
  -1   7  -8   68.20    3.10
  -1   7  -9   15.24    1.32
   1   7  -9   20.46    1.42
  -1   7  -9   18.08    1.46
  -1   7 -10   11.77    1.21
   1   7 -10   14.25    1.22
  -1   7 -10   13.54    1.32
  -1   7 -11   13.19    1.29
   1   7 -11   14.61    1.28
  -1   7 -11   16.72    1.43
   1   7 -12   86.00    3.70
  -1   7 -12   87.43    3.83
  -1   7  13   40.29    1.93
   1   7 -13   40.35    2.12
  -1   7 -13   41.63    2.26
   1   7 -14    7.77    0.98
  -1   7 -14    6.68    1.11
  -1   7  14    7.25    0.74
  -1   7  15   64.64    2.75
   1   7 -15   66.40    2.96
  -1   7 -15   66.04    3.09
  -1   7  16   55.79    2.39
   1   7 -16   53.44    2.57
  -1   7 -16   55.46    2.73
  -1   7  17   60.50    2.46
  -1   7 -17   52.12    2.71
  -1   7  18   46.29    1.99
  -1   7 -18   41.41    2.25
  -1   7  19   26.30    1.31
  -1   7 -19   23.99    1.59
  -1   7  20   42.06    1.80
  -1   7 -20   37.26    1.99
  -1   7 -21    8.35    0.88
  -1   7  21    6.97    0.62
  -1   7  22    9.14    0.67
  -1   7 -22    9.49    0.86
  -1   7  23   13.28    0.77
  -1   7 -23   14.85    1.10
  -1   7 -23   11.88    0.91
  -1   7  24    1.04    0.33
  -1   7 -24    0.67    0.63
  -1   7  25    5.82    0.46
  -1   7 -25    6.55    0.68
   1   7 -25    5.03    0.68
  -1   7 -26    0.99    0.45
   1   7 -26    0.41    0.46
  -2   7   0   -0.77    0.88
   2   7   0    0.28    0.66
  -2   7   1   10.42    1.18
  -2   7  -1    9.61    1.21
   2   7  -1   10.90    1.03
   2   7   1    7.73    0.94
  -2   7  -2   14.43    1.39
  -2   7  -2   15.07    1.18
   2   7   2   15.34    1.16
  -2   7   2   14.57    1.30
   2   7  -2   15.96    1.21
   2   7  -3    3.35    0.81
  -2   7  -3    4.32    1.09
  -2   7  -3    4.32    0.91
  -2   7   3    4.88    0.92
  -2   7   4   28.76    1.51
  -2   7  -4   27.64    1.70
  -2   7   4   31.75    1.76
   2   7  -4   27.39    1.66
  -2   7  -4   32.07    1.97
   2   7  -5    6.97    0.94
  -2   7  -5    9.83    1.13
  -2   7   5    5.37    0.72
  -2   7  -5    7.70    1.00
  -2   7   5    7.78    1.03
  -2   7   6   14.44    0.99
  -2   7  -6   15.45    1.27
   2   7  -6   14.36    1.21
  -2   7  -6   16.45    1.44
   2   7  -7    9.86    1.08
  -2   7   7   10.96    0.82
  -2   7  -7   10.08    1.12
  -2   7  -7   12.51    1.29
  -2   7   8   71.42    3.15
  -2   7  -8   71.96    3.23
  -2   7  -8   80.14    3.48
  -2   7   9   10.80    0.97
  -2   7  -9   10.14    1.10
  -2   7  -9   13.47    1.28
  -2   7  10   14.76    1.10
  -2   7 -10   14.73    1.31
  -2   7 -10   15.19    1.48
  -2   7  11   30.06    1.62
  -2   7 -11   28.27    1.75
  -2   7 -11   26.86    1.86
  -2   7 -12    1.92    1.00
  -2   7  12    2.68    0.64
  -2   7 -12    1.51    0.88
  -2   7  13   56.29    2.63
  -2   7 -13   61.32    2.86
  -2   7 -13   65.23    3.03
  -2   7 -14    8.41    1.18
  -2   7  14    7.01    0.77
  -2   7 -14    6.45    1.11
  -2   7  15   49.60    2.19
  -2   7 -15   44.20    2.41
  -2   7 -15   47.17    2.53
  -2   7  16   15.69    1.06
  -2   7 -16   16.06    1.44
  -2   7 -16   15.48    1.48
  -2   7 -17  155.66    6.13
  -2   7 -17  145.41    6.19
  -2   7  18   78.93    3.10
  -2   7 -18   72.15    3.42
  -2   7  19   83.96    3.20
  -2   7 -19   73.92    3.47
  -2   7  20   13.81    0.89
  -2   7 -20   13.59    1.19
  -2   7 -21    5.59    0.86
  -2   7  21    6.73    0.62
  -2   7 -21    6.35    0.95
  -2   7  22    9.74    0.70
  -2   7 -22   11.16    1.06
  -2   7 -22    9.75    0.92
  -2   7  23   18.00    0.95
  -2   7 -23   18.97    1.20
  -2   7 -23   16.33    1.09
  -2   7  24   42.04    1.66
  -2   7 -24   42.71    1.84
  -2   7 -25    3.85    0.52
  -2   7  25    5.31    0.43
  -2   7 -25    5.17    0.64
   2   7 -26    8.66    0.68
  -3   7   0    7.20    1.11
  -3   7   0    7.63    0.92
  -3   7  -1   13.74    1.18
  -3   7   1   11.39    1.04
  -3   7   1   14.23    1.35
  -3   7  -1   14.91    1.41
  -3   7   2   17.91    1.22
  -3   7  -2   18.46    1.34
  -3   7  -2   19.36    1.58
  -3   7   3   18.68    1.35
  -3   7   3   18.05    1.18
  -3   7  -3   20.59    1.40
  -3   7  -3   19.19    1.58
  -3   7  -4    4.39    1.12
  -3   7   4    4.41    0.80
  -3   7   4    2.86    0.65
  -3   7  -4    5.36    0.92
  -3   7   5   13.31    1.14
  -3   7   5   11.96    0.92
  -3   7  -5   11.98    1.19
  -3   7  -5   13.60    1.30
  -3   7  -6   10.74    1.29
  -3   7   6    9.74    1.00
  -3   7   6    9.79    0.80
  -3   7  -6    8.56    1.09
  -3   7   7  115.83    4.86
  -3   7   7  124.63    4.53
  -3   7  -7  113.72    4.83
  -3   7   8   59.89    2.77
  -3   7   8   60.91    2.42
  -3   7  -8   58.14    2.80
  -3   7  -8   64.05    3.05
  -3   7  -9    4.45    1.07
  -3   7   9    4.98    0.77
  -3   7  -9    4.54    0.98
  -3   7 -10    6.17    1.19
  -3   7  10    5.54    0.81
  -3   7 -10    4.75    0.99
  -3   7 -11   12.75    1.38
  -3   7  11   11.38    1.04
  -3   7 -11   12.28    1.22
  -3   7  12   16.58    1.21
  -3   7 -12   17.27    1.41
  -3   7 -12   19.02    1.59
  -3   7 -13    5.97    1.20
  -3   7  13    5.32    0.77
  -3   7 -13    4.88    1.00
  -3   7  14   24.65    1.44
  -3   7 -14   23.06    1.63
  -3   7 -14   24.64    1.82
  -3   7  15   25.71    1.49
  -3   7 -15   27.57    1.76
  -3   7 -15   29.06    1.95
  -3   7  16   58.36    2.55
  -3   7 -16   57.52    2.96
  -3   7 -17    1.01    0.99
  -3   7  17    2.25    0.55
  -3   7 -17    0.74    0.52
  -3   7  18   59.85    2.52
  -3   7 -18   56.23    2.90
  -3   7  19  160.81    5.95
  -3   7 -19  169.79    6.21
  -3   7 -19  154.51    6.27
  -3   7  20  149.22    5.35
  -3   7 -20  151.98    5.58
  -3   7  21   81.60    3.11
  -3   7 -21   85.02    3.35
  -3   7  22   33.90    1.49
  -3   7 -22   33.88    1.71
  -3   7 -23    4.20    0.69
  -3   7  23    4.21    0.48
  -3   7 -23    4.42    0.73
  -3   7 -24    0.13    0.48
  -3   7  24    0.30    0.31
  -3   7 -24    1.17    0.56
  -3   7  25   20.99    0.96
  -3   7 -25   21.60    1.08
   3   7 -25   19.20    1.10
  -3   7 -25   19.44    1.04
  -4   7   0   -0.08    0.73
  -4   7  -1    9.47    1.04
  -4   7   1    7.54    0.87
  -4   7  -1    7.72    0.95
  -4   7   2    5.37    0.86
  -4   7   2    4.08    0.73
  -4   7  -2    2.11    0.72
  -4   7  -2    4.80    0.88
  -4   7   3    1.61    0.71
  -4   7   3    2.02    0.62
  -4   7  -3    3.31    0.87
  -4   7   3    3.81    0.93
  -4   7   4   12.54    1.22
  -4   7   4   12.85    0.97
  -4   7  -4   13.51    1.24
  -4   7   4   15.35    1.28
  -4   7   5   10.56    1.15
  -4   7   5   11.70    0.90
  -4   7  -5    9.95    1.15
  -4   7   5   13.10    1.17
  -4   7   6   59.03    2.87
  -4   7   6   62.39    2.49
  -4   7  -6   57.24    2.79
  -4   7  -6   65.99    3.04
  -4   7  -7    7.55    1.19
  -4   7   7    7.58    0.97
  -4   7   7    8.79    0.73
  -4   7  -7    5.63    1.04
  -4   7  -8    9.07    1.25
  -4   7   8    6.89    0.93
  -4   7   8    8.40    0.70
  -4   7  -8    8.08    1.10
  -4   7   9   43.38    2.23
  -4   7   9   44.40    1.85
  -4   7  -9   41.14    2.25
  -4   7  -9   46.30    2.46
  -4   7  10   23.91    1.50
  -4   7 -10   20.29    1.55
  -4   7 -10   24.47    1.75
  -4   7  11   27.84    1.66
  -4   7 -11   24.51    1.69
  -4   7 -11   30.16    1.95
  -4   7 -12    6.51    1.16
  -4   7  12    5.13    0.83
  -4   7 -12    5.58    1.00
  -4   7 -13    3.98    1.14
  -4   7  13    4.02    0.75
  -4   7 -13    4.14    0.70
  -4   7 -13    4.24    1.00
  -4   7  14   24.56    1.49
  -4   7 -14   24.30    1.37
  -4   7 -14   25.47    1.67
  -4   7 -14   28.78    1.96
  -4   7 -15    7.48    1.29
  -4   7  15    6.37    0.82
  -4   7 -15    6.87    0.72
  -4   7 -16    0.26    0.99
  -4   7  16    0.44    0.51
  -4   7 -16    0.91    0.51
  -4   7  17   83.83    3.39
  -4   7 -17   82.54    3.56
  -4   7 -17   84.14    3.83
  -4   7  18   24.14    1.33
  -4   7 -18   23.45    1.58
  -4   7 -18   24.95    1.78
  -4   7  19   62.14    2.57
  -4   7 -19   60.83    2.78
  -4   7 -19   58.93    2.92
  -4   7  20   32.58    1.51
  -4   7 -20   31.46    1.71
  -4   7  21   23.01    1.20
  -4   7 -21   24.47    1.44
  -4   7 -21   22.21    1.50
  -4   7  22   23.80    1.19
  -4   7 -22   23.80    1.36
  -4   7 -22   22.66    1.41
  -4   7  23   48.72    1.98
  -4   7 -23   50.84    2.13
  -4   7 -23   45.31    2.13
  -4   7  24   32.18    1.36
  -4   7 -24   30.70    1.46
  -4   7 -24   29.91    1.49
  -4   7 -25    2.93    0.50
  -4   7  25    2.95    0.37
  -5   7   0   17.03    1.13
  -5   7   0   16.01    1.43
  -5   7   1   15.56    1.09
  -5   7  -1   13.23    1.07
  -5   7   1   15.46    1.38
  -5   7  -1   15.16    1.43
  -5   7   2   21.23    1.26
  -5   7   2   21.25    1.55
  -5   7  -2   21.94    1.68
  -5   7  -3   10.21    1.32
  -5   7   3   10.69    1.14
  -5   7   3   11.20    0.90
  -5   7  -3   11.44    1.15
  -5   7   3   11.73    1.19
  -5   7  -4    4.48    1.17
  -5   7   4    6.26    0.99
  -5   7   4    6.12    0.71
  -5   7  -4    4.54    0.83
  -5   7  -4    6.52    1.02
  -5   7   4    8.15    1.05
  -5   7   5   83.32    3.69
  -5   7   5   84.96    3.21
  -5   7  -5   78.11    3.55
  -5   7  -5   77.14    3.35
  -5   7   5   87.60    3.55
  -5   7   6   70.16    3.21
  -5   7   6   72.16    2.75
  -5   7  -6   62.92    2.88
  -5   7  -6   68.54    3.13
  -5   7   7    6.81    0.98
  -5   7   7    8.78    0.73
  -5   7  -7    6.18    0.89
  -5   7  -7    7.24    1.14
  -5   7   8    3.92    0.85
  -5   7   8    5.30    0.61
  -5   7  -8    2.88    0.73
  -5   7  -8    4.22    0.94
  -5   7   9   28.06    1.72
  -5   7   9   27.48    1.35
  -5   7  -9   29.35    1.56
  -5   7  -9   27.13    1.78
  -5   7  10   35.73    1.59
  -5   7 -10   31.56    1.71
  -5   7 -10   33.86    1.97
  -5   7  11   41.46    2.13
  -5   7 -11   38.43    1.88
  -5   7 -11   39.27    2.14
  -5   7  12   15.30    1.21
  -5   7 -12   13.87    0.99
  -5   7 -12   14.77    1.33
  -5   7 -13    5.15    1.15
  -5   7  13    4.50    0.79
  -5   7 -13    3.66    0.68
  -5   7 -14    4.56    1.13
  -5   7  14    3.82    0.73
  -5   7 -14    4.13    0.62
  -5   7  15    0.33    0.56
  -5   7 -15    0.64    0.49
  -5   7  16   33.64    1.77
  -5   7 -16   33.34    1.93
  -5   7 -16   38.42    2.25
  -5   7  17   38.07    1.88
  -5   7 -17   39.21    2.06
  -5   7 -17   40.66    2.32
  -5   7  18   65.70    2.76
  -5   7 -18   62.11    2.89
  -5   7 -18   70.54    3.20
  -5   7  19   23.19    1.29
  -5   7 -19   25.96    1.54
  -5   7 -19   24.16    1.72
  -5   7 -20    5.61    1.03
  -5   7  20    4.75    0.60
  -5   7 -20    6.50    0.88
  -5   7  21   40.84    1.80
  -5   7 -21   41.11    1.95
  -5   7 -21   42.02    2.12
  -5   7  22   53.75    2.22
  -5   7 -22   57.33    2.37
  -5   7 -22   53.60    2.47
  -5   7 -23    3.91    0.72
  -5   7  23    4.03    0.46
  -5   7 -23    4.88    0.64
  -5   7 -24    6.67    0.71
  -5   7  24    6.86    0.51
  -5   7 -24    7.44    0.63
  -6   7   0    1.15    0.96
  -6   7   0    2.92    0.70
  -6   7   1   67.17    2.76
  -6   7   1   66.18    3.11
  -6   7  -1   68.43    3.17
  -6   7   2   74.03    2.93
  -6   7   2   73.38    3.27
  -6   7  -2   69.02    3.32
  -6   7   3   98.00    4.36
  -6   7   3  102.49    3.87
  -6   7  -3  100.14    3.94
  -6   7   3  106.02    4.24
  -6   7  -3   97.91    4.32
  -6   7   4  110.20    4.71
  -6   7   4  116.27    4.21
  -6   7  -4  106.48    4.56
  -6   7  -4  106.46    4.27
  -6   7   4  118.01    4.55
  -6   7  -4  112.87    4.72
  -6   7  -5    8.41    1.24
  -6   7   5    8.25    1.08
  -6   7   5   10.67    0.84
  -6   7  -5    9.84    0.95
  -6   7  -5   10.11    1.22
  -6   7   5   12.05    1.18
  -6   7   6  106.47    4.44
  -6   7   6  106.41    3.94
  -6   7  -6   99.04    4.30
  -6   7  -6  105.23    4.07
  -6   7  -6  103.32    4.49
  -6   7   7  108.19    4.48
  -6   7   7  109.63    3.98
  -6   7  -7  100.99    4.07
  -6   7  -7  101.10    4.37
  -6   7  -7  108.89    4.54
  -6   7   8   42.18    2.22
  -6   7   8   38.31    1.75
  -6   7  -8   38.88    1.86
  -6   7  -8   37.97    2.16
  -6   7  -8   42.64    2.30
  -6   7  -9    6.50    1.18
  -6   7   9    5.29    0.96
  -6   7   9    6.01    0.72
  -6   7  -9    6.11    0.78
  -6   7  -9    5.92    1.07
  -6   7 -10    9.19    1.21
  -6   7  10    5.97    0.96
  -6   7  10    7.04    0.74
  -6   7 -10    7.18    0.77
  -6   7 -10    7.56    1.12
  -6   7 -11   11.03    1.32
  -6   7  11   13.05    1.14
  -6   7 -11   10.38    0.83
  -6   7  12   13.99    1.19
  -6   7 -12   15.64    0.99
  -6   7  13   14.87    1.17
  -6   7 -13   14.74    0.93
  -6   7  14    4.45    0.78
  -6   7 -14    4.69    0.57
  -6   7 -14    4.44    0.99
  -6   7  15    1.62    0.61
  -6   7 -15    0.90    0.86
  -6   7  16   11.50    0.98
  -6   7 -16   10.35    1.13
  -6   7  17   22.11    1.27
  -6   7 -17   18.18    1.37
  -6   7  18    0.86    0.49
  -6   7 -18    1.19    0.76
  -6   7  19    5.54    0.63
  -6   7 -19    5.48    0.85
  -6   7 -20    2.82    0.87
  -6   7  20    2.73    0.51
  -6   7 -20    2.85    0.72
  -6   7  21   11.46    0.78
  -6   7 -21   11.62    0.94
  -6   7 -21   12.10    1.09
  -6   7 -22    3.35    0.72
  -6   7  22    3.07    0.43
  -6   7 -22    4.09    0.62
  -6   7 -23    5.12    0.70
  -6   7  23    5.36    0.48
  -6   7 -24    1.07    0.50
  -6   7  24    0.64    0.27
  -7   7   0    9.20    1.20
  -7   7  -1   12.03    1.32
  -7   7   1   15.17    0.99
  -7   7   1   12.95    1.26
  -7   7   2  101.63    3.74
  -7   7  -2   95.77    3.74
  -7   7   2   98.59    4.06
  -7   7  -2   89.36    4.07
  -7   7   3  388.30   14.86
  -7   7   3  425.57   14.35
  -7   7  -3  424.75   14.40
  -7   7   3  407.34   14.64
  -7   7  -3  399.05   14.76
  -7   7   4  328.47   12.31
  -7   7   4  344.72   11.77
  -7   7  -4  334.62   11.80
  -7   7   4  337.45   12.05
  -7   7  -4  329.97   12.21
  -7   7   5   36.58    2.11
  -7   7   5   35.13    1.64
  -7   7  -5   34.88    1.71
  -7   7  -5   35.10    2.11
  -7   7  -6   12.50    1.36
  -7   7   6   10.75    1.21
  -7   7   6   13.42    0.95
  -7   7  -6   11.65    0.92
  -7   7  -7    8.18    1.19
  -7   7   7    9.67    1.12
  -7   7   7    9.57    0.84
  -7   7  -7    8.82    0.82
  -7   7  -7    7.96    1.16
  -7   7   8   33.49    1.97
  -7   7   8   34.30    1.62
  -7   7  -8   33.99    1.59
  -7   7  -8   31.67    1.94
  -7   7  -8   32.06    1.97
  -7   7   9   25.59    1.67
  -7   7   9   23.04    1.35
  -7   7  -9   26.68    1.34
  -7   7  -9   26.69    1.74
  -7   7  -9   26.49    1.76
  -7   7  10   25.97    1.67
  -7   7  10   24.59    1.43
  -7   7 -10   28.57    1.35
  -7   7 -10   28.10    1.79
  -7   7 -11    1.44    0.93
  -7   7  11    0.56    0.68
  -7   7  11    0.03    0.66
  -7   7 -11    1.19    0.51
  -7   7 -12    5.77    1.03
  -7   7  12    4.24    0.81
  -7   7 -12    6.28    0.61
  -7   7  12    3.18    0.73
  -7   7 -13    9.05    1.16
  -7   7  13    8.56    0.96
  -7   7 -13    6.81    0.61
  -7   7 -13    7.14    1.07
  -7   7 -14    6.15    1.10
  -7   7  14    6.48    0.86
  -7   7 -14    6.35    1.00
  -7   7  15   38.02    1.93
  -7   7 -15   36.15    1.98
  -7   7 -15   40.89    2.18
  -7   7  16   33.14    1.77
  -7   7 -16   38.03    1.91
  -7   7 -16   36.82    2.06
  -7   7  17   13.99    1.02
  -7   7 -17   16.58    1.21
  -7   7 -17   14.75    1.33
  -7   7 -18    2.49    0.88
  -7   7  18    2.16    0.55
  -7   7 -18    2.71    0.79
  -7   7 -19    4.00    0.91
  -7   7  19    4.64    0.59
  -7   7 -19    5.76    0.80
  -7   7  20    5.94    0.59
  -7   7  21    2.03    0.42
  -7   7  22    4.46    0.46
  -7   7  23   22.68    1.03
  -8   7   0    0.59    0.93
  -8   7  -1  170.99    6.14
  -8   7   1  165.36    6.41
  -8   7  -1  169.96    6.48
  -8   7   2  176.44    6.25
  -8   7  -2  173.12    6.24
  -8   7   2  169.61    6.50
  -8   7  -2  167.59    6.59
  -8   7   3   46.75    2.61
  -8   7   3   50.39    2.20
  -8   7  -3   54.09    2.20
  -8   7   3   55.29    2.47
  -8   7  -3   48.07    2.52
  -8   7   4   25.52    1.80
  -8   7   4   23.59    1.35
  -8   7  -4   26.86    1.32
  -8   7  -4   24.64    1.70
  -8   7   5   16.17    1.47
  -8   7   5   18.07    1.13
  -8   7  -5   18.70    1.09
  -8   7  -5   16.85    1.43
  -8   7  -6    2.54    0.99
  -8   7   6    2.67    0.90
  -8   7   6    3.73    0.75
  -8   7  -6    3.85    0.64
  -8   7   7   95.88    4.09
  -8   7   7   91.17    3.65
  -8   7  -7   97.12    3.58
  -8   7  -7   88.17    3.99
  -8   7   8   28.93    1.78
  -8   7   8   24.98    1.52
  -8   7  -8   31.72    1.41
  -8   7  -8   28.44    1.79
  -8   7   9    8.99    1.09
  -8   7  -9   10.26    0.75
  -8   7   9    8.69    0.93
  -8   7  -9   10.52    1.18
  -8   7  10   29.99    1.76
  -8   7  10   26.25    1.55
  -8   7 -10   32.47    1.40
  -8   7 -10   28.29    1.78
  -8   7 -11    1.80    0.85
  -8   7  11    1.43    0.73
  -8   7  11    0.81    0.69
  -8   7 -11    2.29    0.47
  -8   7 -12    5.70    0.97
  -8   7  12    5.45    0.86
  -8   7 -12    7.00    0.57
  -8   7  12    3.80    0.77
  -8   7 -13    8.10    1.05
  -8   7  13    7.62    0.88
  -8   7 -14    2.79    0.88
  -8   7  14    2.27    0.64
  -8   7 -15    1.26    0.81
  -8   7  15    0.48    0.57
  -8   7 -16    7.27    1.00
  -8   7  16    8.44    0.82
  -8   7 -17    3.47    0.84
  -8   7  17    2.39    0.58
  -8   7 -18    3.72    0.84
  -8   7  18    3.84    0.57
  -8   7 -19    5.37    0.82
  -8   7  19    5.02    0.58
  -8   7 -20    0.92    0.66
  -8   7 -21    8.88    0.83
  -8   7 -22    2.30    0.57
  -9   7   0  278.81   10.06
  -9   7  -1   28.95    1.43
  -9   7   1   25.82    1.57
  -9   7  -1   26.04    1.62
  -9   7  -2    2.84    0.85
  -9   7   2    3.50    0.99
  -9   7   2    4.81    0.79
  -9   7  -2    4.98    0.71
  -9   7   2    3.22    0.79
  -9   7   3  129.00    5.46
  -9   7   3  131.99    5.00
  -9   7  -3  143.32    4.95
  -9   7  -3  124.32    5.19
  -9   7   4   12.55    1.32
  -9   7   4   14.32    1.11
  -9   7  -4   16.67    1.01
  -9   7  -4   13.85    1.25
  -9   7  -5    0.04    0.79
  -9   7   5    2.23    0.94
  -9   7   5    1.51    0.74
  -9   7  -5    2.24    0.60
  -9   7  -6    6.73    1.02
  -9   7   6    8.00    1.10
  -9   7  -6    8.32    0.73
  -9   7   6    7.53    0.90
  -9   7   7   19.31    1.47
  -9   7   7   18.33    1.26
  -9   7  -7   18.26    1.03
  -9   7  -7   17.22    1.35
  -9   7   8  108.87    4.45
  -9   7   8  103.79    4.18
  -9   7  -8  110.17    3.97
  -9   7  -8  100.88    4.29
  -9   7  -9    8.27    1.06
  -9   7   9   12.87    1.16
  -9   7  -9   13.15    0.81
  -9   7   9    9.38    1.06
  -9   7  10   15.55    1.24
  -9   7  10   14.65    1.16
  -9   7 -10   14.93    0.87
  -9   7 -10   14.55    1.21
  -9   7  11   22.67    1.48
  -9   7  11   19.92    1.35
  -9   7 -11   24.73    1.14
  -9   7 -11   22.78    1.45
  -9   7  12   10.76    1.03
  -9   7 -12   10.04    1.01
  -9   7  13    3.76    0.72
  -9   7 -14    0.67    0.68
  -9   7 -15    6.06    0.85
  -9   7 -16    3.27    0.76
  -9   7 -17   43.77    2.06
  -9   7 -18    1.77    0.68
  -9   7 -19    1.83    0.62
  -9   7  20   18.56    0.96
  -9   7 -20   18.94    1.10
  -9   7 -21    3.24    0.58
  -9   7  21    3.50    0.37
 -10   7   0   91.27    3.68
 -10   7   0   97.42    3.77
 -10   7  -1   43.85    2.03
 -10   7   1   47.13    2.13
 -10   7  -1   44.99    2.15
 -10   7   2   12.78    1.30
 -10   7  -2   15.45    1.04
 -10   7  -2   14.30    1.13
 -10   7   3    5.52    1.02
 -10   7   3    5.68    0.86
 -10   7  -3    6.34    0.79
 -10   7  -3    6.18    0.87
 -10   7   4   14.26    1.32
 -10   7   4   13.06    1.14
 -10   7  -4   14.07    1.00
 -10   7  -4   14.29    1.13
 -10   7   5   35.08    2.00
 -10   7   5   35.13    1.82
 -10   7  -5   32.80    1.58
 -10   7  -5   30.84    1.76
 -10   7  -6    0.84    0.69
 -10   7   6    1.54    0.83
 -10   7   6    1.16    0.83
 -10   7  -6    2.27    0.60
 -10   7  -7    4.24    0.81
 -10   7   7    2.54    0.83
 -10   7   7    3.80    0.88
 -10   7  -7    3.23    0.60
 -10   7  -8    0.77    0.70
 -10   7   8   -0.09    0.79
 -10   7  -8    0.97    0.52
 -10   7  -9    2.50    0.75
 -10   7   9    3.20    0.81
 -10   7  -9    2.94    0.56
 -10   7 -10   19.88    1.08
 -10   7 -10   21.27    1.33
 -10   7 -11   20.95    1.32
 -10   7 -12   24.46    1.42
 -10   7 -13   11.86    1.00
 -10   7 -14    1.30    0.64
 -10   7  15   18.49    1.10
 -10   7 -15   17.88    1.15
 -10   7 -16    7.63    0.81
 -10   7  16   10.01    0.74
 -10   7 -17   -0.50    0.58
 -10   7  17    0.39    0.38
 -10   7 -18    0.36    0.54
 -10   7  18    1.56    0.38
 -10   7 -19    1.48    0.51
 -10   7  19    1.05    0.32
 -10   7  20    5.94    0.45
 -11   7   0    3.94    0.88
 -11   7   1   13.78    1.34
 -11   7   1   14.72    1.22
 -11   7  -1   16.19    1.18
 -11   7  -2   59.87    2.58
 -11   7  -3    2.50    0.68
 -11   7   4   31.70    1.85
 -11   7  -4   32.47    1.66
 -11   7  -4   36.52    1.70
 -11   7   5    6.91    1.02
 -11   7  -5    7.20    0.81
 -11   7  -5    7.91    0.82
 -11   7  -6    2.16    0.64
 -11   7   6    0.09    0.84
 -11   7  -6    1.25    0.59
 -11   7  -7    0.69    0.60
 -11   7   7   -0.51    0.82
 -11   7  -7    0.42    0.54
 -11   7  -8   12.10    0.90
 -11   7  -8   13.19    0.98
 -11   7  -9    1.02    0.61
 -11   7   9    0.62    0.64
 -11   7  -9    0.49    0.54
 -11   7  10   13.93    1.07
 -11   7 -10   13.66    0.99
 -11   7  11   22.58    1.33
 -11   7 -11   23.39    1.27
 -11   7  12   18.21    1.13
 -11   7 -12   16.15    1.06
 -11   7 -13    1.22    0.56
 -11   7  13    0.69    0.46
 -11   7  14   11.71    0.82
 -11   7 -14   10.13    0.80
 -11   7  15   10.96    0.74
 -11   7 -15    8.41    0.73
 -11   7  16   14.94    0.85
 -11   7 -16   14.93    0.90
 -11   7  17    0.38    0.31
  11  -7  17    0.70    0.31
 -11   7  18    4.91    0.42
 -12   7   0   -0.35    0.74
 -12   7   1    7.78    1.00
 -12   7  -1    8.73    0.95
 -12   7   2   11.45    1.10
 -12   7  -2   11.49    1.04
 -12   7   3   17.26    1.32
 -12   7  -3   15.02    1.14
 -12   7   4    3.26    0.78
 -12   7  -4    2.13    0.71
 -12   7   5    3.50    0.76
 -12   7  -5    1.66    0.66
 -12   7   6    2.40    0.69
 -12   7  -6    0.34    0.61
 -12   7   7    6.21    0.78
 -12   7  -7    4.45    0.69
 -12   7   8   27.89    1.42
 -12   7  -8   17.87    1.14
 -12   7   9    1.36    0.55
 -12   7  10    6.94    0.74
 -12   7  11    3.04    0.55
 -12   7  12    1.01    0.45
 -12   7  13    6.13    0.59
 -12   7  14   21.71    1.09
 -12   7  15   15.99    0.85
 -12   7  16    3.70    0.38
 -13   7   0    3.69    0.70
 -13   7   1    9.92    0.96
 -13   7  -1   10.34    0.99
 -13   7   2   10.06    0.95
 -13   7  -2    7.93    0.88
 -13   7   3    0.24    0.57
 -13   7  -3    0.33    0.59
 -13   7   4   15.21    1.09
 -13   7   5    0.30    0.53
 -13   7   6    8.35    0.81
 -13   7   7   14.49    1.00
 -13   7   8    1.30    0.50
 -13   7   9   20.82    1.15
 -13   7  10   10.60    0.75
 -13   7  11    0.73    0.38
 -13   7  12    5.71    0.52
 -14   7   0    0.10    0.46
 -14   7   1    4.72    0.63
 -14   7  -1    4.72    0.64
 -14   7   2   10.90    0.85
 -14   7  -2   10.68    0.86
 -14   7   3   22.47    1.19
 -14   7  -3   17.56    1.12
 -14   7   4    5.65    0.62
 -14   7  -4    3.34    0.57
 -14   7   5    1.35    0.44
 -14   7  -5    0.37    0.45
 -14   7   6    0.78    0.43
 -14   7  -6    0.26    0.43
 -14   7   7    9.78    0.72
 -14   7   8    8.52    0.62
 -14   7   9   10.39    0.68
 -15   7   0    2.77    0.45
 -15   7  -1   24.66    1.20
 -15   7   2    0.60    0.34
 -15   7  -2    0.39    0.36
 -15   7   3   -0.09    0.31
 -15   7  -3    0.12    0.33
 -15   7  -4    1.10    0.37
   0   8   0   13.84    1.24
   0   8   1    1.01    0.78
   0   8  -1    1.14    0.77
   0   8  -2   35.34    1.94
   0   8   3   -0.89    0.61
   0   8  -3    1.01    0.82
   0   8   4  156.55    5.76
   0   8  -4  155.68    6.01
   0   8  -5    1.10    0.84
   0   8   5    1.22    0.53
   0   8  -6   36.51    1.99
   0   8  -7    1.63    0.81
   0   8  -7    0.20    0.69
   0   8  -8   88.35    3.70
   0   8  -8   90.79    3.78
   0   8  -9   -0.26    0.77
   0   8  -9   -0.35    0.75
   0   8 -10    6.91    0.98
   0   8 -10    7.27    1.01
   0   8 -11   -0.18    0.76
   0   8 -11    0.51    0.79
   0   8 -12    7.99    1.00
   0   8 -12   10.05    1.09
   0   8 -13    0.30    0.72
   0   8 -13   -0.04    0.83
   0   8 -14   65.59    2.83
   0   8 -14   55.26    2.63
   0   8 -15   -1.00    0.71
   0   8 -15    0.33    0.88
   0   8 -16    0.70    0.64
   0   8 -16    1.10    0.83
   0   8 -17    0.03    0.79
   0   8 -18   26.90    1.59
   0   8 -19   -0.73    0.41
   0   8 -19    0.09    0.71
   0   8 -20    5.70    0.80
   0   8 -21   -0.18    0.56
   0   8 -22    1.12    0.52
   1   8   0   69.02    2.98
  -1   8   0   67.90    3.08
  -1   8   1    6.93    0.88
  -1   8   1   10.43    1.15
   1   8  -1   10.14    1.01
  -1   8  -1    9.62    1.13
  -1   8   2    8.39    0.89
  -1   8   2   13.22    1.20
   1   8  -2    9.91    1.05
  -1   8  -2   12.30    1.20
  -1   8  -3    4.69    0.98
  -1   8   3    2.94    0.68
   1   8  -3    5.45    0.89
  -1   8   4   61.14    2.53
   1   8   4   57.71    2.51
   1   8  -4   61.16    2.73
  -1   8  -4   61.26    2.84
  -1   8   5   28.13    1.46
  -1   8  -5   31.43    1.71
   1   8  -5   29.83    1.70
  -1   8  -5   33.27    1.90
  -1   8  -6   11.63    1.24
  -1   8   6   11.50    0.83
  -1   8  -6   11.56    1.09
   1   8  -6   12.58    1.13
  -1   8  -7   12.15    1.25
  -1   8  -7   14.92    1.19
   1   8  -7   13.80    1.16
  -1   8  -8    9.51    1.18
  -1   8  -8   10.12    1.06
   1   8  -8    8.32    1.00
   1   8  -8   10.93    1.06
  -1   8  -9   11.42    1.23
  -1   8  -9   10.84    1.12
   1   8  -9   11.72    1.10
   1   8  -9   10.65    1.07
  -1   8 -10   24.50    1.54
   1   8 -10   26.96    1.58
   1   8 -10   22.75    1.47
  -1   8 -10   21.99    1.61
  -1   8 -11   11.12    1.17
  -1   8 -11   12.28    1.17
   1   8 -11   13.41    1.21
   1   8 -11   11.63    1.07
  -1   8 -12    3.11    0.92
  -1   8 -12    3.74    0.91
   1   8 -12    4.01    0.94
  -1   8 -13    3.93    0.91
  -1   8 -13    5.11    0.96
   1   8 -13    5.22    0.98
  -1   8 -14   -0.18    0.79
  -1   8 -14    0.39    0.82
   1   8 -14    0.38    0.84
  -1   8 -15    1.78    0.80
  -1   8 -15    2.46    0.90
   1   8 -15    3.96    0.92
  -1   8 -16    3.75    0.82
  -1   8 -16    5.26    0.97
   1   8 -16    5.06    0.95
  -1   8 -17   22.03    1.45
   1   8 -17   21.75    1.44
  -1   8 -17   18.91    1.28
  -1   8 -18    2.24    0.66
  -1   8 -18    1.83    0.47
   1   8 -18    2.41    0.80
  -1   8 -19    2.88    0.62
  -1   8 -19    4.35    0.81
   1   8 -19    4.75    0.82
  -1   8 -20   11.53    0.97
   1   8 -20   10.90    0.95
  -1   8 -21   18.54    1.09
   1   8 -21   16.38    1.07
   1   8 -22    1.51    0.50
  -2   8   0    0.94    0.65
  -2   8   0    4.61    1.01
  -2   8   1   43.80    2.07
  -2   8  -1   41.22    2.08
  -2   8   1   50.41    2.37
  -2   8  -1   48.64    2.38
  -2   8   2   35.22    1.70
   2   8  -2   35.49    1.81
  -2   8   2   39.65    2.02
  -2   8  -2   35.96    2.00
  -2   8  -3   10.93    1.23
  -2   8   3    8.30    0.84
   2   8  -3   10.34    0.95
  -2   8   4   22.44    1.25
  -2   8  -4   19.44    1.37
   2   8  -4   23.77    1.40
  -2   8  -4   20.38    1.55
  -2   8   5   36.76    1.65
  -2   8  -5   34.21    1.89
   2   8  -5   34.49    1.81
  -2   8  -5   34.83    2.03
  -2   8   6   11.57    0.83
  -2   8  -6   12.90    1.12
  -2   8  -6   13.11    1.31
  -2   8   7   58.06    2.42
  -2   8  -7   65.52    2.80
  -2   8  -7   64.63    2.98
  -2   8  -8   47.88    2.30
  -2   8  -8   45.82    2.45
  -2   8  -9    5.13    1.06
  -2   8  -9    5.64    0.92
  -2   8 -10    4.45    1.03
  -2   8 -10    4.09    0.89
   2   8 -10    3.77    0.86
  -2   8 -11    9.51    1.20
  -2   8 -11   11.24    1.10
   2   8 -11   10.30    1.10
  -2   8 -12   24.49    1.54
   2   8 -12   24.53    1.58
  -2   8 -12   21.31    1.63
  -2   8 -13    6.63    1.07
  -2   8 -13    8.10    1.05
   2   8 -13    7.53    1.04
  -2   8 -14    1.79    0.88
  -2   8 -14    3.58    0.88
   2   8 -14    2.50    0.87
  -2   8 -15   -0.11    0.77
  -2   8 -15   -0.91    0.56
  -2   8 -15    1.77    0.83
   2   8 -15    0.52    0.83
  -2   8 -16   30.69    1.47
  -2   8 -16   36.39    1.82
   2   8 -16   34.67    1.88
  -2   8 -17   29.79    1.41
  -2   8 -17   35.34    1.79
   2   8 -17   36.43    1.85
  -2   8 -17   28.84    1.68
  -2   8 -18  105.85    3.90
   2   8 -18  101.02    3.90
  -2   8 -19   89.41    3.23
   2   8 -19   80.97    3.19
  -2   8 -20   51.47    2.09
   2   8 -20   48.59    2.04
   2   8 -21   47.85    1.89
  -2   8 -21   37.43    1.73
   2   8 -22    9.52    0.71
  -3   8   0   67.12    2.92
  -3   8   0   77.18    3.26
  -3   8   1   28.77    1.55
  -3   8  -1   26.92    1.57
  -3   8   1   31.57    1.82
  -3   8  -1   32.05    1.90
  -3   8   2   20.04    1.21
  -3   8   2   23.53    1.57
  -3   8  -2   20.66    1.55
  -3   8   3   57.11    2.32
  -3   8  -3   59.19    2.73
  -3   8   4   27.60    1.37
  -3   8  -4   26.51    1.58
  -3   8  -4   23.90    1.47
  -3   8  -4   28.40    1.84
  -3   8  -5    6.80    1.13
  -3   8   5    6.35    0.68
  -3   8  -5    7.70    0.97
  -3   8   6   45.25    1.91
  -3   8  -6   44.60    2.21
  -3   8  -6   45.68    2.42
  -3   8   7   26.63    1.26
  -3   8  -7   27.74    1.63
  -3   8  -7   24.47    1.47
  -3   8  -7   28.93    1.85
  -3   8  -8    6.62    1.15
  -3   8   8    7.50    0.61
  -3   8  -8    8.07    0.97
  -3   8  -9   15.75    1.17
  -3   8  -9   19.28    1.35
  -3   8  -9   20.22    1.57
  -3   8  10   14.04    1.03
  -3   8 -10   13.78    1.08
  -3   8 -10   16.86    1.26
  -3   8 -10   16.49    1.44
  -3   8 -11    7.72    1.22
  -3   8  11    8.79    0.78
  -3   8 -11    6.13    0.79
  -3   8 -11    9.51    1.02
  -3   8 -12   12.49    1.34
  -3   8  12   12.59    0.91
  -3   8 -12   10.50    0.94
  -3   8 -12   13.43    1.16
   3   8 -12   13.78    1.19
  -3   8 -13    1.16    0.90
  -3   8  13    1.49    0.46
  -3   8 -13    0.18    0.60
  -3   8 -13    1.81    0.80
   3   8 -13    2.33    0.84
  -3   8 -14    2.49    0.90
  -3   8  14    3.24    0.52
  -3   8 -14    2.88    0.59
  -3   8 -14    4.25    0.87
   3   8 -14    3.22    0.87
  -3   8 -15    0.65    0.83
  -3   8  15    0.52    0.40
  -3   8 -15   -0.02    0.47
  -3   8 -15    1.05    0.77
   3   8 -15   -0.28    0.76
  -3   8 -16    9.37    1.05
  -3   8  16    8.82    0.70
  -3   8 -16    9.01    0.68
  -3   8 -16    9.75    1.04
   3   8 -16    9.69    1.04
  -3   8 -17    5.80    0.90
  -3   8  17    6.70    0.58
  -3   8 -17    5.72    0.54
  -3   8 -17    8.12    0.96
   3   8 -17    5.89    0.87
  -3   8  18   22.84    1.14
  -3   8 -18   27.33    1.47
   3   8 -18   24.92    1.43
  -3   8 -18   21.15    1.41
  -3   8  19   37.43    1.59
  -3   8 -19   35.61    1.80
  -3   8  20    9.19    0.58
   3   8 -20    9.75    0.83
  -3   8 -20    8.67    0.80
  -3   8 -21    4.07    0.56
   3   8 -21    3.98    0.60
  -3   8 -22   10.67    0.75
  -4   8   0   16.39    1.10
  -4   8   1    8.83    0.85
  -4   8  -1    7.44    0.85
  -4   8   2   19.16    1.15
  -4   8  -2   17.39    1.18
  -4   8  -2   18.69    1.50
  -4   8  -3    5.38    1.09
  -4   8   3    5.03    0.70
  -4   8  -3    2.66    0.72
  -4   8   4   45.07    1.86
  -4   8  -4   44.35    2.30
  -4   8  -5    4.65    1.06
  -4   8   5    4.27    0.74
  -4   8   5    4.87    0.61
  -4   8  -5    4.74    0.88
  -4   8  -6    3.73    1.02
  -4   8   6    2.52    0.68
  -4   8   6    4.95    0.59
  -4   8  -6    1.80    0.67
  -4   8  -6    4.50    0.86
  -4   8   7   22.71    1.45
  -4   8   7   24.26    1.21
  -4   8  -7   25.96    1.56
  -4   8  -7   24.75    1.42
  -4   8  -7   28.50    1.81
  -4   8   8   31.19    1.80
  -4   8   8   37.68    1.59
  -4   8  -8   36.77    1.93
  -4   8  -8   35.30    1.75
  -4   8  -8   39.09    2.17
  -4   8   9   20.76    1.28
  -4   8  -9   19.22    1.22
  -4   8  -9   22.03    1.43
  -4   8  -9   20.22    1.61
  -4   8 -10    4.29    1.07
  -4   8  10    5.91    0.73
  -4   8 -10    5.33    0.74
  -4   8 -10    6.11    0.92
  -4   8  11   19.57    1.22
  -4   8 -11   20.68    1.20
  -4   8 -11   20.42    1.39
  -4   8 -11   21.59    1.64
  -4   8 -12    5.95    1.16
  -4   8  12    6.79    0.73
  -4   8 -12    6.37    0.72
  -4   8 -12    7.94    0.99
  -4   8 -13    5.78    1.10
  -4   8  13    4.79    0.62
  -4   8 -13    6.15    0.67
  -4   8 -13    7.48    0.96
  -4   8 -14    3.37    0.99
  -4   8  14    2.37    0.51
  -4   8 -14    2.77    0.54
  -4   8 -14    2.55    0.79
   4   8 -14    2.40    0.78
  -4   8 -15    3.45    0.94
  -4   8  15    1.61    0.45
  -4   8 -15    1.80    0.46
  -4   8 -15    2.99    0.81
   4   8 -15    1.18    0.76
  -4   8  16   32.48    1.63
  -4   8 -16   36.59    1.51
  -4   8 -16   39.82    1.89
   4   8 -16   37.77    1.86
  -4   8 -16   36.20    1.97
  -4   8 -17    9.68    1.04
  -4   8  17    7.70    0.66
  -4   8 -17    9.26    0.95
   4   8 -17    9.28    0.92
  -4   8  18   10.85    0.71
   4   8 -18   10.16    0.91
  -4   8 -18   10.76    1.04
  -4   8  19   26.85    1.17
   4   8 -19   22.65    1.29
  -4   8 -19   24.47    1.42
  -4   8  20   16.74    0.84
  -4   8 -20   17.77    1.06
   4   8 -20   15.12    0.95
  -4   8 -20   15.34    1.03
   4   8 -21   86.64    3.34
  -4   8 -21   86.21    3.38
  -5   8   0    0.84    0.65
  -5   8   0    3.41    0.66
  -5   8   0    1.78    0.89
  -5   8   1   15.58    1.32
  -5   8  -1   15.38    1.33
  -5   8   1   22.09    1.18
  -5   8  -1   20.49    1.23
  -5   8   1   24.76    1.55
  -5   8  -1   25.16    1.59
  -5   8   2    1.49    0.70
  -5   8  -2    1.26    0.64
  -5   8   2    2.77    0.60
  -5   8  -2    3.03    0.72
  -5   8   2    2.94    0.96
  -5   8   3   50.35    2.68
  -5   8   3   66.38    2.48
  -5   8   4    9.88    1.04
  -5   8   4   13.46    0.87
  -5   8   5    0.59    0.65
  -5   8   5    1.74    0.51
  -5   8  -5    0.40    0.58
  -5   8   6    1.15    0.65
  -5   8   6    2.99    0.54
  -5   8  -6    1.08    0.64
  -5   8   7   21.38    1.41
  -5   8   7   23.36    1.19
  -5   8  -7   24.67    1.50
  -5   8  -7   22.71    1.26
  -5   8   8    7.47    0.87
  -5   8   8    7.50    0.70
  -5   8  -8    9.27    0.82
  -5   8  -8   10.08    1.03
  -5   8   9   19.63    1.25
  -5   8   9   16.71    1.02
  -5   8  -9   19.15    1.34
  -5   8  -9   18.36    1.10
  -5   8  10   26.72    1.50
  -5   8 -10   27.32    1.36
  -5   8 -10   25.34    1.58
  -5   8 -10   26.99    1.81
  -5   8 -11    1.10    1.00
  -5   8  11    1.81    0.58
  -5   8 -11    2.05    0.57
  -5   8 -11    1.18    0.76
  -5   8 -12    4.19    1.07
  -5   8  12    5.37    0.72
  -5   8 -12    6.12    0.63
  -5   8 -12    5.59    0.87
  -5   8 -13    6.82    1.13
  -5   8  13    4.60    0.66
  -5   8 -13    5.28    0.56
  -5   8 -13    6.24    0.92
  -5   8  14   16.29    1.06
  -5   8 -14   17.30    0.93
  -5   8 -14   18.82    1.26
  -5   8 -14   18.95    1.48
  -5   8 -15    0.69    0.86
  -5   8  15    0.28    0.42
  -5   8 -15    0.34    0.36
  -5   8 -15    0.78    0.72
  -5   8 -16    9.76    1.12
  -5   8  16   10.39    0.75
   5   8 -16    8.57    0.86
  -5   8 -17    4.44    0.90
  -5   8  17    5.09    0.54
   5   8 -17    3.84    0.66
  -5   8 -18    6.95    0.91
  -5   8  18    6.90    0.57
   5   8 -18    6.58    0.69
  -5   8 -19    8.12    0.87
  -5   8  19    8.27    0.59
  -5   8 -19    9.71    0.82
   5   8 -19    8.60    0.70
  -5   8 -20    0.32    0.58
  -5   8  20    0.19    0.27
   5   8 -20    0.13    0.40
  -6   8   0   14.28    0.95
  -6   8   0   12.62    1.22
  -6   8   1   32.52    2.00
  -6   8  -1   34.23    2.03
  -6   8   1   41.41    1.76
  -6   8  -1   39.18    1.78
  -6   8   1   43.64    2.12
  -6   8  -1   41.18    2.10
  -6   8   2   52.04    2.73
  -6   8  -2   48.08    2.70
  -6   8   2   65.73    2.47
  -6   8   2   67.41    2.80
  -6   8  -2   64.36    2.85
  -6   8   3   62.23    3.04
  -6   8   3   72.64    2.74
  -6   8  -3   68.21    3.09
  -6   8   4   20.00    1.44
  -6   8   4   23.20    1.19
  -6   8  -4   23.68    1.25
  -6   8  -4   21.24    1.55
  -6   8   5   39.10    2.07
  -6   8   5   42.62    1.79
  -6   8  -5   37.36    1.80
  -6   8  -5   43.13    2.21
  -6   8   6   24.97    1.54
  -6   8   6   24.60    1.28
  -6   8  -6   24.35    1.30
  -6   8  -6   26.17    1.67
  -6   8   7   87.16    3.63
  -6   8   7   79.86    3.30
  -6   8  -7   90.66    3.34
  -6   8  -7   92.07    3.77
  -6   8  -8   11.91    1.26
  -6   8   8    9.79    0.99
  -6   8   8   10.95    0.83
  -6   8  -8   10.96    0.83
  -6   8   9   10.43    0.97
  -6   8   9    9.76    0.84
  -6   8  -9   12.05    0.82
  -6   8  10    2.91    0.66
  -6   8  10    2.16    0.62
  -6   8 -10    3.62    0.55
  -6   8  11    0.27    0.55
  -6   8 -11    1.40    0.45
  -6   8  12    0.40    0.52
  -6   8 -12    1.45    0.44
  -6   8  13   16.19    1.08
  -6   8 -13   18.13    0.91
  -6   8 -13   17.18    1.22
  -6   8  14   31.65    1.57
  -6   8 -14   31.41    1.32
  -6   8 -14   32.08    1.67
  -6   8  15    6.10    0.64
  -6   8  16   21.46    1.14
  -6   8 -16   21.52    1.49
  -6   8  17   30.12    1.44
  -6   8 -17   34.74    1.78
  -6   8  18   27.00    1.28
  -6   8 -18   29.85    1.57
  -6   8 -19    5.92    0.76
  -6   8  19    5.08    0.47
  -6   8 -20    0.27    0.52
  -7   8   0   71.86    2.71
  -7   8   0   70.40    2.99
  -7   8   1   83.74    3.73
  -7   8  -1   78.10    3.70
  -7   8   1   95.08    3.41
  -7   8   1   89.35    3.65
  -7   8  -1   89.64    3.67
  -7   8   2   18.32    1.37
  -7   8   2   22.35    1.15
  -7   8  -2   21.21    1.43
  -7   8   3   34.66    1.98
  -7   8   3   38.12    1.73
  -7   8  -3   40.34    1.72
  -7   8  -3   37.02    2.00
  -7   8   4    7.53    0.94
  -7   8   4    9.17    0.81
  -7   8  -4    8.94    0.75
  -7   8   5   62.13    2.79
  -7   8   5   61.63    2.47
  -7   8  -5   59.60    2.43
  -7   8  -5   59.31    2.77
  -7   8   6   50.81    2.46
  -7   8   6   48.46    2.17
  -7   8  -6   54.53    2.15
  -7   8  -6   53.81    2.51
  -7   8   7   99.03    4.07
  -7   8  -7  111.93    3.76
  -7   8  -7  108.09    4.14
  -7   8  -8    2.17    0.84
  -7   8   8    2.27    0.69
  -7   8   8    2.25    0.66
  -7   8  -8    3.23    0.54
  -7   8  -9    3.23    0.86
  -7   8   9    3.45    0.72
  -7   8   9    2.46    0.66
  -7   8  -9    4.71    0.55
  -7   8 -10   10.41    1.17
  -7   8  10   11.62    0.96
  -7   8  10    9.12    0.90
  -7   8 -10   12.62    0.75
  -7   8 -11    0.52    0.82
  -7   8  11    0.70    0.54
  -7   8 -11    1.67    0.42
  -7   8 -12   -0.55    0.85
  -7   8  12    0.08    0.47
  -7   8 -12    0.83    0.38
  -7   8  13   12.16    0.89
  -7   8 -13   12.34    0.69
  -7   8 -13   11.51    1.15
  -7   8 -14    2.64    0.84
  -7   8  14    3.05    0.53
  -7   8 -15    1.36    0.77
  -7   8  15    1.36    0.44
  -7   8  16   14.71    0.89
  -7   8  17    2.26    0.40
  -7   8  18    1.92    0.37
  -7   8  19    2.93    0.36
  -8   8   0  115.79    4.95
  -8   8   0  133.08    4.86
  -8   8   1  127.47    5.37
  -8   8  -1  129.58    5.39
  -8   8   1  143.69    5.08
  -8   8  -1  145.12    5.27
  -8   8   2  149.76    5.66
  -8   8  -2  129.60    5.57
  -8   8   2  149.79    5.28
  -8   8  -2  139.98    5.22
  -8   8  -2  150.25    5.49
  -8   8   3  118.15    4.78
  -8   8   3  116.47    4.45
  -8   8  -3  121.64    4.41
  -8   8  -3  121.32    4.67
  -8   8   4  145.80    5.57
  -8   8   4  138.99    5.25
  -8   8  -4  145.44    5.19
  -8   8  -4  142.61    5.45
  -8   8   5   85.24    3.50
  -8   8  -5   87.52    3.14
  -8   8  -5   84.27    3.43
  -8   8  -6    4.11    0.84
  -8   8   6    5.04    0.81
  -8   8  -6    6.10    0.62
  -8   8   6    3.88    0.73
  -8   8   7   23.89    1.49
  -8   8   7   22.56    1.36
  -8   8  -7   28.01    1.23
  -8   8  -7   25.58    1.53
  -8   8   8   37.91    1.88
  -8   8   8   32.15    1.72
  -8   8  -8   38.39    1.57
  -8   8  -8   37.43    1.90
  -8   8  -9    1.25    0.76
  -8   8   9    1.94    0.61
  -8   8   9    0.77    0.62
  -8   8  -9    3.17    0.47
  -8   8 -10    6.56    0.92
  -8   8  10    5.67    0.74
  -8   8 -10    7.24    0.58
  -8   8  10    4.62    0.73
  -8   8 -11    4.04    0.81
  -8   8  11    5.28    0.69
  -8   8 -11    6.04    0.54
  -8   8  12   20.31    1.18
  -8   8 -12   20.15    0.96
  -8   8 -12   21.14    1.34
  -8   8 -13    6.93    0.87
  -8   8  13    5.68    0.67
  -8   8 -14    9.33    0.94
  -8   8  14   10.31    0.77
  -8   8 -15    0.10    0.64
  -8   8  15    0.63    0.38
  -8   8 -16    3.79    0.71
  -8   8  16    3.26    0.45
  -8   8 -17    1.13    0.56
  -8   8  17    0.79    0.33
  -8   8 -18    6.05    0.66
  -8   8  18    6.59    0.49
  -9   8   0    0.88    0.67
  -9   8   1   39.60    2.04
  -9   8  -1   37.57    2.03
  -9   8   1   37.75    1.79
  -9   8  -1   39.97    1.79
  -9   8  -1   42.75    1.90
  -9   8   2   19.00    1.34
  -9   8  -2   17.20    1.35
  -9   8   2   21.10    1.22
  -9   8  -2   21.53    1.16
  -9   8  -2   21.49    1.26
  -9   8   3   18.18    1.32
  -9   8  -3   16.63    1.30
  -9   8   3   18.56    1.21
  -9   8  -3   20.30    1.23
  -9   8   4   29.42    1.68
  -9   8   4   29.54    1.55
  -9   8  -4   30.29    1.42
  -9   8  -4   30.73    1.58
  -9   8   5   21.44    1.42
  -9   8   5   21.92    1.39
  -9   8  -5   26.62    1.23
  -9   8  -5   25.27    1.38
  -9   8   6    3.04    0.70
  -9   8   6    1.69    0.71
  -9   8  -6    3.42    0.56
  -9   8  -6    2.39    0.68
  -9   8   7   14.26    1.05
  -9   8   7   10.77    0.97
  -9   8  -7   12.28    0.79
  -9   8  -7   11.21    0.95
  -9   8   8   27.75    1.49
  -9   8   8   25.41    1.43
  -9   8  -8   27.00    1.24
  -9   8  -8   24.67    1.41
  -9   8   9   19.87    1.27
  -9   8  -9   23.16    1.08
  -9   8  -9   20.27    1.25
  -9   8 -10    3.39    0.70
  -9   8  10    3.07    0.62
  -9   8 -10    3.86    0.51
  -9   8 -11    4.37    0.73
  -9   8  11    5.16    0.65
  -9   8 -11    5.18    0.51
  -9   8  12   10.29    0.77
  -9   8 -12    8.39    0.84
  -9   8  13   66.83    2.69
  -9   8 -13   68.35    2.74
  -9   8 -14    0.65    0.54
  -9   8  14    1.13    0.41
  -9   8  15   14.91    0.85
  -9   8 -15   15.35    0.95
  -9   8 -16   -0.45    0.48
  -9   8  16    0.55    0.30
 -10   8   0   -0.03    0.61
 -10   8   1    9.69    0.95
 -10   8  -1    7.42    0.89
 -10   8  -1   10.15    0.89
 -10   8   2   31.88    1.74
 -10   8  -2   28.62    1.72
 -10   8   2   33.72    1.67
 -10   8  -2   34.12    1.58
 -10   8   3    0.38    0.63
 -10   8  -3   -0.03    0.59
 -10   8   3    0.38    0.70
 -10   8  -3    1.03    0.60
 -10   8  -3    2.07    0.57
 -10   8   4    1.62    0.67
 -10   8  -4    0.72    0.62
 -10   8   4   -0.05    0.74
 -10   8  -4    1.04    0.59
 -10   8  -4    2.60    0.58
 -10   8   5    1.25    0.62
 -10   8  -5    0.48    0.58
 -10   8   5    0.38    0.69
 -10   8  -5    1.50    0.56
 -10   8  -5    1.94    0.57
 -10   8   6   18.65    1.18
 -10   8   6   13.72    1.09
 -10   8  -6   14.88    0.95
 -10   8  -6   18.11    1.04
 -10   8   7    6.47    0.74
 -10   8   7    4.02    0.75
 -10   8  -7    5.25    0.63
 -10   8  -7    6.21    0.67
 -10   8   8    1.50    0.56
 -10   8  -8    1.48    0.50
 -10   8  -8    1.69    0.53
 -10   8   9    9.64    0.78
 -10   8  -9    8.20    0.73
 -10   8  10   48.15    1.87
 -10   8 -10   43.28    1.77
 -10   8  11   28.48    1.37
 -10   8 -11   26.01    1.30
 -10   8  12   28.37    1.35
 -10   8 -12   28.44    1.34
 -10   8  13    8.36    0.65
 -10   8 -13   10.34    0.72
 -10   8  14    0.60    0.32
 -10   8  15    1.73    0.32
 -11   8   0    0.20    0.51
 -11   8   0    0.28    0.61
 -11   8   1    4.81    0.70
 -11   8  -1    4.26    0.71
 -11   8  -1    3.46    0.76
 -11   8   2    8.97    0.85
 -11   8  -2    7.85    0.84
 -11   8  -2    7.96    0.82
 -11   8   3    8.21    0.81
 -11   8  -3    6.86    0.79
 -11   8   3    5.86    0.86
 -11   8  -3    6.49    0.76
 -11   8   4    4.97    0.67
 -11   8  -4    3.53    0.68
 -11   8   4    3.60    0.76
 -11   8  -4    4.45    0.68
 -11   8  -5    2.95    0.63
 -11   8  -5    2.28    0.61
 -11   8   6    4.67    0.61
 -11   8  -6    3.95    0.61
 -11   8   7    7.86    0.70
 -11   8  -7    4.99    0.71
 -11   8  -7    5.17    0.64
 -11   8  -7    8.89    0.60
 -11   8   8    3.04    0.53
 -11   8  -8    4.08    0.46
 -11   8   9    6.84    0.64
 -11   8  -9    7.85    0.59
 -11   8  10    4.87    0.54
 -11   8  11    3.62    0.46
 -11   8  12   17.27    0.91
 -12   8   0    5.52    0.65
 -12   8   1    1.25    0.48
 -12   8  -1    1.22    0.49
 -12   8   2    4.60    0.60
 -12   8  -2    4.07    0.58
 -12   8   3    0.15    0.43
 -12   8  -3    0.72    0.46
 -12   8   4    4.53    0.57
 -12   8  -4    3.32    0.57
 -12   8   5    5.50    0.58
 -12   8  -5    3.45    0.58
 -12   8   6    0.91    0.41
 -12   8  -6    0.63    0.45
 -12   8  -7    0.02    0.40
 -12   8  -8    3.98    0.56
 -13   8   0    2.65    0.44
 -13   8  -1    0.63    0.36
 -13   8  -2    0.63    0.36
 -13   8  -3    0.30    0.32
   0   9   0    0.44    0.55
   0   9   1   -0.48    0.52
   0   9  -1   -0.91    0.60
   0   9   2   12.20    0.83
   0   9  -2   10.44    0.88
   0   9   3    0.11    0.44
   0   9  -3   -1.19    0.62
   0   9   4   19.06    0.97
   0   9  -4   17.35    1.15
   0   9  -5   -1.93    0.70
   0   9  -5    1.22    0.62
   0   9  -6    6.82    0.81
   0   9  -7    2.35    0.65
   0   9  -8   89.46    3.52
   0   9  -9    1.96    0.62
   0   9 -10   25.03    1.33
   0   9 -11    2.00    0.66
   0   9 -11    1.03    0.57
   0   9 -12   15.99    1.05
   0   9 -12   12.56    0.91
   0   9 -13   -1.10    0.57
   0   9 -13    0.75    0.60
   0   9 -14    9.14    0.83
   0   9 -14    6.22    0.64
   0   9 -15   -0.72    0.44
   0   9 -15    1.13    0.58
   0   9 -16    1.02    0.36
   0   9 -16    1.69    0.57
  -1   9   0    3.98    0.61
   1   9   0    1.42    0.57
  -1   9   1    2.61    0.55
  -1   9  -1    2.67    0.59
   1   9   1    1.49    0.54
   1   9  -1    1.72    0.57
  -1   9   2    1.93    0.49
   1   9   2    1.87    0.50
  -1   9  -2    1.91    0.60
   1   9  -2    1.11    0.60
  -1   9   3   11.51    0.78
   1   9   3   11.62    0.80
  -1   9  -3   11.12    0.91
  -1   9   4   15.69    0.87
  -1   9  -4   15.39    1.03
  -1   9  -4   15.80    1.16
  -1   9   5    9.81    0.65
  -1   9  -5   11.03    0.97
  -1   9  -6    0.97    0.59
  -1   9  -6    3.66    0.74
  -1   9  -7   22.98    1.37
  -1   9  -8    4.44    0.76
  -1   9  -9   25.84    1.43
  -1   9  -9   28.48    1.51
  -1   9 -10   17.78    1.14
  -1   9 -10   16.66    1.11
  -1   9 -11    8.18    0.76
  -1   9 -11    8.43    0.83
  -1   9 -12    1.25    0.53
  -1   9 -12    3.51    0.71
  -1   9 -12    2.50    0.63
  -1   9 -13    2.83    0.54
  -1   9 -13    2.92    0.60
  -1   9 -14    2.85    0.50
  -1   9 -14    5.34    0.76
   1   9 -14    5.47    0.67
  -1   9 -14    2.59    0.57
  -1   9 -15   10.86    0.86
  -1   9 -15    9.37    0.63
   1   9 -15    9.09    0.78
  -1   9 -16    1.68    0.36
   1   9 -16    1.18    0.40
  -1   9 -16    3.38    0.60
   1   9 -16    2.64    0.54
  -1   9 -17    3.26    0.58
  -2   9   0   23.76    1.20
   2   9   0   21.38    1.21
  -2   9  -1   13.08    0.92
   2   9   1   12.71    0.91
  -2   9  -2    3.88    0.64
   2   9   2    2.39    0.55
  -2   9   3    8.31    0.65
  -2   9  -3    6.16    0.73
  -2   9  -3    7.22    0.91
  -2   9   4    5.43    0.53
  -2   9  -4    3.47    0.64
  -2   9  -4    5.24    0.85
  -2   9   5   22.81    1.07
  -2   9  -5   22.07    1.22
  -2   9  -5   21.74    1.41
  -2   9  -6   15.14    1.16
  -2   9  -7    3.75    0.79
  -2   9  -8   16.25    1.04
  -2   9  -8   18.11    1.24
  -2   9  -9    0.84    0.52
  -2   9  -9    1.92    0.72
  -2   9 -10    6.19    0.68
  -2   9 -10    7.92    0.87
  -2   9 -11    5.33    0.65
  -2   9 -11    6.75    0.84
  -2   9 -12   38.54    1.80
  -2   9 -12   38.07    1.60
  -2   9 -13    1.99    0.47
  -2   9 -13    1.32    0.61
  -2   9 -14    3.36    0.47
  -2   9 -14    2.92    0.60
  -2   9 -15   27.22    1.33
  -2   9 -15   23.91    1.04
   2   9 -16    2.19    0.43
  -2   9 -16    4.86    0.66
  -3   9   0   13.74    0.86
  -3   9   1    4.49    0.52
  -3   9  -1    4.35    0.57
   3   9   1    2.98    0.57
  -3   9   2    0.99    0.43
  -3   9  -2    0.37    0.47
  -3   9  -2    1.53    0.76
  -3   9   3    4.60    0.52
  -3   9  -3    2.91    0.58
  -3   9  -3    3.90    0.84
  -3   9   4    1.57    0.42
  -3   9  -4    0.57    0.50
  -3   9  -4    1.83    0.74
  -3   9   5    8.80    0.61
  -3   9  -5    8.26    0.96
  -3   9   6    7.31    0.59
  -3   9  -6    7.02    0.94
  -3   9  -7    3.94    0.60
  -3   9  -7    5.22    0.86
  -3   9  -8    4.71    0.61
  -3   9  -8    7.50    0.92
  -3   9  -9    2.50    0.54
  -3   9  -9    3.39    0.81
  -3   9 -10    4.20    0.56
  -3   9 -10    5.28    0.84
  -3   9 -11    5.50    0.59
  -3   9 -11    5.74    0.84
  -3   9 -12    5.49    0.83
  -3   9 -12    6.45    0.57
  -3   9 -13    4.69    0.75
  -3   9 -13    5.76    0.51
  -3   9 -14    1.58    0.35
  -3   9 -14    0.72    0.62
  -3   9 -15    6.01    0.42
  -3   9 -15    4.98    0.65
  -3   9 -16   57.67    2.29
  -4   9   0    6.77    0.59
  -4   9   1    4.38    0.53
  -4   9  -1    2.90    0.51
  -4   9   2    8.54    0.65
  -4   9  -2    8.10    0.66
  -4   9  -2    8.10    0.97
  -4   9   3    1.64    0.45
  -4   9  -3    1.09    0.49
  -4   9  -3    1.54    0.76
  -4   9   4    3.62    0.48
  -4   9  -4    2.47    0.53
  -4   9  -4    4.14    0.81
  -4   9   5    1.46    0.44
  -4   9  -5    2.10    0.76
  -4   9   6    5.38    0.55
  -4   9  -6    5.50    0.88
  -4   9   7   11.76    0.75
  -4   9  -7   12.37    0.78
  -4   9  -7   13.39    1.13
  -4   9  -8    1.50    0.46
  -4   9  -8    1.08    0.75
  -4   9  -9    3.33    0.49
  -4   9  -9    3.20    0.80
  -4   9 -10    2.50    0.47
  -4   9 -10    3.70    0.82
  -4   9 -11    7.21    0.57
  -4   9 -11    5.89    0.90
  -4   9 -12    2.05    0.72
  -4   9 -12    1.33    0.36
  -4   9 -13    6.96    0.82
  -4   9 -13    7.42    0.52
  -4   9 -14   36.45    1.42
  -4   9 -14   35.82    1.72
  -4   9 -15   20.51    1.13
  -5   9   0    7.75    0.62
  -5   9   1   22.03    1.07
  -5   9  -1   21.57    1.06
  -5   9   2    3.05    0.48
  -5   9  -2    2.75    0.47
  -5   9   3   32.24    1.45
  -5   9  -3   35.09    1.47
  -5   9   4    4.01    0.52
  -5   9   5    3.45    0.51
  -5   9   6    0.69    0.45
  -5   9  -6    1.30    0.44
  -5   9  -6    1.42    0.72
  -5   9   7    0.63    0.45
  -5   9  -7    1.08    0.42
  -5   9  -7    1.45    0.73
  -5   9  -8    1.44    0.40
  -5   9  -8    1.17    0.71
  -5   9  -9    3.90    0.47
  -5   9  -9    3.85    0.82
  -5   9 -10    7.26    0.54
  -5   9 -10    8.10    0.93
  -5   9 -11    4.01    0.42
  -5   9 -11    2.90    0.76
  -5   9 -12    2.32    0.35
  -5   9 -12    1.12    0.68
  -5   9 -13    4.03    0.37
  -5   9 -13    4.02    0.72
  -5   9 -14   22.23    1.25
  -5   9 -15   12.78    0.88
  -6   9   0   37.39    1.58
  -6   9   1   24.95    1.19
  -6   9  -1   26.48    1.19
  -6   9   2   64.67    2.60
  -6   9  -2   71.73    2.61
  -6   9   3   52.54    2.17
  -6   9  -3   60.60    2.45
  -6   9   4    3.09    0.53
  -6   9  -4    4.49    0.77
  -6   9   5   15.89    0.95
  -6   9  -5   18.91    0.91
  -6   9  -6    7.03    0.55
  -6   9   6    5.18    0.61
  -6   9   7   17.28    1.06
  -6   9  -7   24.21    1.02
  -6   9  -8    6.01    0.49
  -6   9   8    2.94    0.55
  -6   9   9    2.97    0.44
  -6   9  -9    5.56    0.46
  -6   9  10    3.10    0.43
  -6   9 -10    5.70    0.44
  -6   9  11    2.69    0.37
  -6   9 -11    4.52    0.41
  -6   9 -12   15.83    0.76
  -6   9 -12   19.50    1.15
  -6   9 -13    1.36    0.60
  -6   9 -14   15.06    0.95
  -7   9   0    2.61    0.50
  -7   9   1  125.98    4.58
  -7   9  -1  126.93    4.56
  -7   9   2    8.24    0.74
  -7   9   2   12.24    0.76
  -7   9   3    2.97    0.50
  -7   9   3    3.28    0.55
  -7   9   4    8.59    0.71
  -7   9   4    8.25    0.72
  -7   9  -4   10.46    0.65
  -7   9   5    5.66    0.58
  -7   9  -5    6.92    0.56
  -7   9   5    6.22    0.65
  -7   9  -5    7.70    0.78
  -7   9   6   11.64    0.80
  -7   9   6   11.77    0.86
  -7   9  -6   14.99    0.77
  -7   9  -6   16.08    1.01
  -7   9   7    4.54    0.53
  -7   9  -7    6.61    0.51
  -7   9   7    4.07    0.60
  -7   9  -7    6.71    0.76
  -7   9  -8   12.63    0.66
  -7   9  -8   12.12    0.90
  -7   9  -9    9.30    0.58
  -7   9  -9   10.60    0.85
  -7   9 -10   17.42    0.78
  -7   9 -10   20.06    1.07
  -7   9 -11    0.96    0.31
  -7   9 -11    1.52    0.57
  -7   9 -12    1.84    0.57
  -8   9   0   51.58    2.40
  -8   9   0   66.69    2.36
  -8   9   1   23.17    1.28
  -8   9  -1   24.81    1.29
  -8   9   2    3.89    0.53
  -8   9  -2    3.02    0.54
  -8   9   2    3.70    0.59
  -8   9   3    6.72    0.65
  -8   9   3    8.12    0.72
  -8   9  -3    8.55    0.64
  -8   9   4   28.82    1.38
  -8   9  -4   32.29    1.30
  -8   9   5    4.89    0.55
  -8   9   5    5.54    0.65
  -8   9   6   17.16    0.97
  -8   9  -6   17.97    0.88
  -8   9   7   28.28    1.40
  -8   9   7   30.85    1.44
  -8   9   8    0.67    0.32
  -8   9  -8    1.18    0.38
  -8   9   9    2.74    0.38
  -8   9  -9    3.15    0.43
  -8   9  -9    3.98    0.56
  -8   9 -10    9.59    0.72
  -8   9 -11   21.84    1.09
  -9   9   0    0.33    0.40
  -9   9   0    0.13    0.49
  -9   9   1    0.67    0.40
  -9   9  -1    0.06    0.36
  -9   9   1    0.40    0.49
  -9   9   2    3.89    0.50
  -9   9  -2    3.07    0.50
  -9   9   2    3.35    0.57
  -9   9  -2    4.44    0.56
  -9   9   3    8.73    0.67
  -9   9   3   10.01    0.77
  -9   9   4    1.36    0.37
  -9   9   4    1.13    0.50
  -9   9  -4    1.78    0.46
  -9   9   5   38.90    1.57
  -9   9  -5   38.59    1.50
  -9   9   6   13.99    0.80
  -9   9  -6   15.33    0.82
  -9   9  -7    7.73    0.59
 -10   9   1   17.34    0.90
 -10   9  -1   15.57    0.88
 -10   9  -2    2.04    0.46
 -10   9  -3    1.38    0.43
   0  10   0    7.21    0.49
   0  10   1    0.34    0.27
   0  10  -1    0.48    0.32
   0  10  -2    6.16    0.51
   0  10  -3    1.87    0.40
   0  10  -4   11.16    0.68
   0  10  -5    0.53    0.38
   0  10  -6   17.09    0.88
   0  10  -7    0.18    0.38
   0  10  -8    0.54    0.36
  -1  10   0    5.10    0.42
   1  10   0    4.86    0.42
  -1  10   1    2.29    0.34
  -1  10  -1    2.23    0.36
   1  10  -1    1.91    0.37
  -1  10   2    3.39    0.36
  -1  10  -2    4.16    0.42
  -1  10  -3    7.05    0.52
   1  10  -3    6.27    0.54
  -1  10  -4    5.03    0.47
   1  10  -4    3.98    0.49
  -1  10  -5    1.86    0.39
   1  10  -5    1.88    0.43
  -1  10  -6    5.93    0.49
   1  10  -6    4.54    0.52
  -1  10  -7    4.14    0.45
   1  10  -7    3.68    0.49
   1  10  -8   11.35    0.70
   1  10  -9    8.03    0.58
  -2  10   0   12.24    0.64
  -2  10   1   13.57    0.68
  -2  10  -1   13.30    0.69
   2  10  -1   13.38    0.69
  -2  10   2   10.87    0.60
  -2  10  -2   12.44    0.64
   2  10  -2   10.46    0.64
  -2  10   3   17.00    0.81
   2  10  -3   17.50    0.89
  -2  10  -4   10.17    0.59
   2  10  -4    7.83    0.61
  -2  10  -5    2.41    0.37
   2  10  -5    0.78    0.40
  -2  10  -6    1.54    0.35
   2  10  -6    1.08    0.42
   2  10  -7    6.91    0.58
   2  10  -8    7.26    0.58
  -2  10  -9   16.52    0.77
   2  10  -9   16.90    0.85
  -3  10   0    3.16    0.38
  -3  10   1    1.32    0.33
  -3  10  -1    2.34    0.35
  -3  10   2    5.98    0.48
   3  10  -2    5.49    0.47
  -3  10   3    4.13    0.40
   3  10  -3    4.07    0.46
  -3  10  -4   23.60    0.96
   3  10  -4   19.32    0.99
  -3  10  -5   16.32    0.73
   3  10  -5   11.97    0.76
  -3  10  -6    6.24    0.46
   3  10  -6    4.97    0.52
   3  10  -7   17.22    0.88
  -3  10  -8    3.49    0.34
   3  10  -8    1.09    0.39
  -4  10   0    7.61    0.52
  -4  10   1   11.31    0.63
  -4  10  -1   12.14    0.64
  -4  10   2   43.26    1.82
  -4  10  -2   53.86    1.85
  -4  10  -3   21.99    0.96
  -4  10  -4    7.25    0.48
  -4  10  -5    4.14    0.39
  -5  10   0    1.97    0.35
  -5  10  -1   92.80    3.33
  -5  10  -2   45.81    1.75
  -5  10  -3    2.55    0.35
  -5  10  -4    3.11    0.36
   0   0   0    0.00    0.00


TITL yang02-needle in Pbcm
REM Pbcm (#57 in standard setting)
CELL 1.54184   8.441497  16.864103  29.122198  90.0000  90.0000  90.0000
ZERR   18.00   0.000153   0.000268   0.000489   0.0000   0.0000   0.0000
LATT  1
SYMM -x,-y, z+1/2
SYMM -x, y+1/2,-z+1/2
SYMM  x,-y+1/2,-z
SFAC C H N O
UNIT 198.00 180.00 18.00 18.00
TREF
HKLF 4
END
_computing_structure_solution     'SHELXT 2014/5 (Sheldrick, 2014)'
;
_shelx_hkl_checksum                27744
_olex2_submission_special_instructions  'No special instructions were received'
_oxdiff_exptl_absorpt_empirical_details
;
Empirical correction (ABSPACK) includes:
- Absorption correction using spherical harmonics
- Frame scaling
;
_oxdiff_exptl_absorpt_empirical_full_max  1.617
_oxdiff_exptl_absorpt_empirical_full_min  0.469
