# Electronic Supplementary Material (ESI) for Dalton Transactions.
# This journal is Â© The Royal Society of Chemistry 2021

####################################################################### 
# 
# This file contains crystal structure data downloaded from the 
# Cambridge Structural Database (CSD) hosted by the Cambridge 
# Crystallographic Data Centre (CCDC).
# 
# Full information about CCDC data access policies and citation 
# guidelines are available at http://www.ccdc.cam.ac.uk/access/V1 
# 
# Audit and citation data items may have been added by the CCDC. 
# Please retain this information to preserve the provenance of 
# this file and to allow appropriate attribution of the data. 
# 
#######################################################################

data_Complex1
_database_code_depnum_ccdc_archive 'CCDC 2102898'
loop_
_audit_author_name
_audit_author_address
'Adailton Bortoluzzi'
;Universidade Federal de Santa Catarina
Brazil
;
_audit_update_record             
;
2021-08-12 deposited with the CCDC.	2021-12-06 downloaded from the CCDC.
;

_audit_creation_method           SHELXL-2018/3
_shelx_SHELXL_version_number     2018/3
_chemical_name_systematic        ?
_chemical_name_common            ?
_chemical_melting_point          ?
_chemical_formula_moiety         
;
C27 H24 Cu I N3 P [+ solvent]
;
_chemical_formula_sum            'C27 H24 Cu I N3 P [+ solvent]'
_chemical_formula_weight         611.90

loop_
_atom_type_symbol
_atom_type_description
_atom_type_scat_dispersion_real
_atom_type_scat_dispersion_imag
_atom_type_scat_source
C C 0.0033 0.0016 'International Tables Vol C Tables 4.2.6.8 and 6.1.1.4'
H H 0.0000 0.0000 'International Tables Vol C Tables 4.2.6.8 and 6.1.1.4'
Cu Cu 0.3201 1.2651 'International Tables Vol C Tables 4.2.6.8 and 6.1.1.4'
I I -0.4742 1.8119 'International Tables Vol C Tables 4.2.6.8 and 6.1.1.4'
N N 0.0061 0.0033 'International Tables Vol C Tables 4.2.6.8 and 6.1.1.4'
P P 0.1023 0.0942 'International Tables Vol C Tables 4.2.6.8 and 6.1.1.4'

_space_group_crystal_system      monoclinic
_space_group_IT_number           14
_space_group_name_H-M_alt        'P 21/n'
_space_group_name_Hall           '-P 2yn'

_shelx_space_group_comment       
;
The symmetry employed for this shelxl refinement is uniquely defined
by the following loop, which should always be used as a source of
symmetry information in preference to the above space-group names.
They are only intended as comments.
;

loop_
_space_group_symop_operation_xyz
'x, y, z'
'-x+1/2, y+1/2, -z+1/2'
'-x, -y, -z'
'x-1/2, -y-1/2, z-1/2'

_cell_length_a                   9.0460(10)
_cell_length_b                   14.9018(17)
_cell_length_c                   22.398(3)
_cell_angle_alpha                90
_cell_angle_beta                 98.696(2)
_cell_angle_gamma                90
_cell_volume                     2984.6(6)
_cell_formula_units_Z            4
_cell_measurement_temperature    150(2)
_cell_measurement_reflns_used    7645
_cell_measurement_theta_min      2.32
_cell_measurement_theta_max      29.63

_exptl_crystal_description       prism
_exptl_crystal_colour            yellow
_exptl_crystal_density_meas      ?
_exptl_crystal_density_method    ?
_exptl_crystal_density_diffrn    1.362
_exptl_crystal_F_000             1216
_exptl_transmission_factor_min   ?
_exptl_transmission_factor_max   ?
_exptl_crystal_size_max          0.360
_exptl_crystal_size_mid          0.100
_exptl_crystal_size_min          0.080
_exptl_absorpt_coefficient_mu    1.837
_shelx_estimated_absorpt_T_min   0.558
_shelx_estimated_absorpt_T_max   0.867
_exptl_absorpt_correction_type   multi-scan
_exptl_absorpt_correction_T_min  0.6229
_exptl_absorpt_correction_T_max  0.7460
_exptl_absorpt_process_details   
;
 SADABS 2016/2: Krause, L., Herbst-Irmer, R., Sheldrick G.M. & Stalke D.,
 J. Appl. Cryst. 48 (2015) 3-10
;
_diffrn_ambient_temperature      150(2)
_diffrn_radiation_wavelength     0.71073
_diffrn_radiation_type           MoK\a
_diffrn_radiation_source         'fine-focus sealed tube'
_diffrn_radiation_monochromator  graphite
_diffrn_measurement_device_type  'Bruker APEX-II CCD'
_diffrn_measurement_method       '\f and \w scans'
_diffrn_detector_area_resol_mean ?
_diffrn_reflns_number            28144
_diffrn_reflns_av_unetI/netI     0.0544
_diffrn_reflns_av_R_equivalents  0.0444
_diffrn_reflns_limit_h_min       -12
_diffrn_reflns_limit_h_max       10
_diffrn_reflns_limit_k_min       -20
_diffrn_reflns_limit_k_max       16
_diffrn_reflns_limit_l_min       -31
_diffrn_reflns_limit_l_max       31
_diffrn_reflns_theta_min         1.647
_diffrn_reflns_theta_max         30.017
_diffrn_reflns_theta_full        25.242
_diffrn_measured_fraction_theta_max 0.988
_diffrn_measured_fraction_theta_full 0.999
_diffrn_reflns_Laue_measured_fraction_max 0.988
_diffrn_reflns_Laue_measured_fraction_full 0.999
_diffrn_reflns_point_group_measured_fraction_max 0.988
_diffrn_reflns_point_group_measured_fraction_full 0.999
_reflns_number_total             8616
_reflns_number_gt                5847
_reflns_threshold_expression     'I > 2\s(I)'
_reflns_Friedel_coverage         0.000
_reflns_Friedel_fraction_max     .
_reflns_Friedel_fraction_full    .

_reflns_special_details          
;
 Reflections were merged by SHELXL according to the crystal
 class for the calculation of statistics and refinement.
 
 Structure factors included contributions from the .fab file.
 
 _reflns_Friedel_fraction is defined as the number of unique
 Friedel pairs measured divided by the number that would be
 possible theoretically, ignoring centric projections and
 systematic absences.
;

_computing_data_collection       'Bruker APEX2'
_computing_cell_refinement       'Bruker SAINT'
_computing_data_reduction        'Bruker SAINT'
_computing_structure_solution    'SHELXT 2014/5 (Sheldrick, 2014)'
_computing_structure_refinement  'SHELXL-2018/3 (Sheldrick, 2018)'
_computing_molecular_graphics    'PLATON (Spek, 2009)'
_computing_publication_material  'SHELXL-2018/3 (Sheldrick, 2018)'
_refine_special_details          ?
_refine_ls_structure_factor_coef Fsqd
_refine_ls_matrix_type           full
_refine_ls_weighting_scheme      calc
_refine_ls_weighting_details     
'w=1/[\s^2^(Fo^2^)+(0.0511P)^2^+15.6523P] where P=(Fo^2^+2Fc^2^)/3'
_atom_sites_solution_primary     'dual space'
_atom_sites_solution_secondary   diffmap
_atom_sites_solution_hydrogens   geom
_refine_ls_hydrogen_treatment    constr
_refine_ls_extinction_method     none
_refine_ls_extinction_coef       .
_refine_ls_number_reflns         8616
_refine_ls_number_parameters     299
_refine_ls_number_restraints     0
_refine_ls_R_factor_all          0.0984
_refine_ls_R_factor_gt           0.0597
_refine_ls_wR_factor_ref         0.1501
_refine_ls_wR_factor_gt          0.1307
_refine_ls_goodness_of_fit_ref   1.015
_refine_ls_restrained_S_all      1.015
_refine_ls_shift/su_max          0.001
_refine_ls_shift/su_mean         0.000

loop_
_atom_site_label
_atom_site_type_symbol
_atom_site_fract_x
_atom_site_fract_y
_atom_site_fract_z
_atom_site_U_iso_or_equiv
_atom_site_adp_type
_atom_site_occupancy
_atom_site_site_symmetry_order
_atom_site_calc_flag
_atom_site_refinement_flags_posn
_atom_site_refinement_flags_adp
_atom_site_refinement_flags_occupancy
_atom_site_disorder_assembly
_atom_site_disorder_group
Cu1 Cu 0.65138(7) 0.39387(4) 0.87660(2) 0.02504(14) Uani 1 1 d . . . . .
I1 I 0.81952(5) 0.29422(3) 0.95499(2) 0.04172(12) Uani 1 1 d . . . . .
N1 N 0.4458(5) 0.4023(3) 0.90600(17) 0.0325(10) Uani 1 1 d . . . . .
N2 N 0.3319(6) 0.3523(4) 0.9150(2) 0.0491(13) Uani 1 1 d . . . . .
C3 C 0.2200(8) 0.4019(5) 0.9393(2) 0.0516(17) Uani 1 1 d . . . . .
H3 H 0.128454 0.379829 0.949410 0.062 Uiso 1 1 calc R U . . .
C4 C 0.2711(6) 0.4862(5) 0.9448(2) 0.0387(13) Uani 1 1 d . . . . .
H4 H 0.223254 0.536551 0.959491 0.046 Uiso 1 1 calc R U . . .
C5 C 0.4108(6) 0.4847(4) 0.92418(18) 0.0384(14) Uani 1 1 d . . . . .
C6 C 0.3332(9) 0.2635(6) 0.9025(3) 0.0628(19) Uani 1 1 d . . . . .
H6A H 0.311934 0.254561 0.858719 0.094 Uiso 1 1 calc R U . . .
H6B H 0.256730 0.233040 0.921788 0.094 Uiso 1 1 calc R U . . .
H6C H 0.431760 0.238553 0.918027 0.094 Uiso 1 1 calc R U . . .
C11 C 0.5191(6) 0.5558(4) 0.92214(19) 0.0363(13) Uani 1 1 d . . . . .
N12 N 0.6467(5) 0.5301(3) 0.90371(17) 0.0325(9) Uani 1 1 d . . . . .
C13 C 0.7550(11) 0.5948(4) 0.9026(3) 0.064(2) Uani 1 1 d . . . . .
H13 H 0.844547 0.576214 0.888863 0.077 Uiso 1 1 calc R U . . .
C14 C 0.7481(9) 0.6807(5) 0.9186(3) 0.0616(19) Uani 1 1 d . . . . .
H14 H 0.828237 0.721721 0.917974 0.074 Uiso 1 1 calc R U . . .
C15 C 0.6149(8) 0.7042(6) 0.9359(3) 0.0591(19) Uani 1 1 d . . . . .
H15 H 0.600814 0.764967 0.946539 0.071 Uiso 1 1 calc R U . . .
C16 C 0.4993(7) 0.6441(4) 0.9387(2) 0.0397(13) Uani 1 1 d . . . . .
H16 H 0.408879 0.662971 0.951555 0.048 Uiso 1 1 calc R U . . .
P1 P 0.67320(13) 0.38152(8) 0.78017(5) 0.0214(2) Uani 1 1 d . . . . .
C21 C 0.5625(5) 0.2939(3) 0.73786(19) 0.0245(9) Uani 1 1 d . . . . .
C22 C 0.4972(6) 0.3025(4) 0.6777(2) 0.0304(10) Uani 1 1 d . . . . .
H22 H 0.511505 0.355965 0.656207 0.036 Uiso 1 1 calc R U . . .
C23 C 0.4113(6) 0.2335(4) 0.6488(2) 0.0403(13) Uani 1 1 d . . . . .
H23 H 0.366351 0.240036 0.607913 0.048 Uiso 1 1 calc R U . . .
C24 C 0.3912(7) 0.1555(4) 0.6797(3) 0.0496(16) Uani 1 1 d . . . . .
H24 H 0.331976 0.108561 0.659796 0.059 Uiso 1 1 calc R U . . .
C25 C 0.4559(8) 0.1449(4) 0.7388(3) 0.0470(15) Uani 1 1 d . . . . .
H25 H 0.443035 0.090469 0.759452 0.056 Uiso 1 1 calc R U . . .
C26 C 0.5405(6) 0.2145(4) 0.7682(2) 0.0348(11) Uani 1 1 d . . . . .
H26 H 0.583498 0.207720 0.809357 0.042 Uiso 1 1 calc R U . . .
C31 C 0.8613(5) 0.3636(3) 0.76291(18) 0.0233(9) Uani 1 1 d . . . . .
C32 C 0.8934(6) 0.3136(4) 0.7142(2) 0.0382(13) Uani 1 1 d . . . . .
H32 H 0.815735 0.282747 0.689072 0.046 Uiso 1 1 calc R U . . .
C33 C 1.0398(7) 0.3087(5) 0.7025(3) 0.0457(15) Uani 1 1 d . . . . .
H33 H 1.061097 0.274371 0.669054 0.055 Uiso 1 1 calc R U . . .
C34 C 1.1546(6) 0.3528(4) 0.7383(2) 0.0369(12) Uani 1 1 d . . . . .
H34 H 1.254186 0.349038 0.729810 0.044 Uiso 1 1 calc R U . . .
C35 C 1.1224(6) 0.4025(4) 0.7869(2) 0.0330(11) Uani 1 1 d . . . . .
H35 H 1.199883 0.434113 0.811616 0.040 Uiso 1 1 calc R U . . .
C36 C 0.9768(6) 0.4063(3) 0.7997(2) 0.0306(10) Uani 1 1 d . . . . .
H36 H 0.956336 0.438676 0.834035 0.037 Uiso 1 1 calc R U . . .
C41 C 0.6153(5) 0.4823(3) 0.73675(19) 0.0257(9) Uani 1 1 d . . . . .
C42 C 0.6882(6) 0.5144(4) 0.6910(2) 0.0390(12) Uani 1 1 d . . . . .
H42 H 0.772106 0.482951 0.680587 0.047 Uiso 1 1 calc R U . . .
C43 C 0.6386(8) 0.5929(4) 0.6600(3) 0.0533(17) Uani 1 1 d . . . . .
H43 H 0.688246 0.614454 0.628375 0.064 Uiso 1 1 calc R U . . .
C44 C 0.5183(8) 0.6385(4) 0.6752(3) 0.0530(17) Uani 1 1 d . . . . .
H44 H 0.486057 0.692516 0.654719 0.064 Uiso 1 1 calc R U . . .
C45 C 0.4438(8) 0.6066(4) 0.7202(3) 0.0521(16) Uani 1 1 d . . . . .
H45 H 0.359079 0.637747 0.729989 0.063 Uiso 1 1 calc R U . . .
C46 C 0.4927(6) 0.5290(4) 0.7511(2) 0.0367(12) Uani 1 1 d . . . . .
H46 H 0.441740 0.507474 0.782329 0.044 Uiso 1 1 calc R U . . .

loop_
_atom_site_aniso_label
_atom_site_aniso_U_11
_atom_site_aniso_U_22
_atom_site_aniso_U_33
_atom_site_aniso_U_23
_atom_site_aniso_U_13
_atom_site_aniso_U_12
Cu1 0.0253(3) 0.0333(3) 0.0167(2) -0.0031(2) 0.0040(2) 0.0025(2)
I1 0.0538(2) 0.0474(2) 0.02385(15) 0.00085(14) 0.00548(14) 0.02215(18)
N1 0.019(2) 0.058(3) 0.0198(17) 0.0020(17) 0.0016(14) -0.0018(19)
N2 0.041(3) 0.073(4) 0.031(2) 0.005(2) -0.001(2) -0.011(3)
C3 0.047(4) 0.074(5) 0.029(3) -0.004(3) -0.009(2) 0.011(3)
C4 0.026(3) 0.070(4) 0.019(2) -0.006(2) -0.0007(18) 0.016(3)
C5 0.034(3) 0.070(4) 0.0096(17) -0.004(2) -0.0024(17) 0.024(3)
C6 0.066(5) 0.077(5) 0.046(4) 0.004(3) 0.012(3) -0.003(4)
C11 0.041(3) 0.052(3) 0.0139(18) -0.0027(19) -0.0034(18) 0.019(3)
N12 0.041(3) 0.035(2) 0.0206(17) -0.0028(16) 0.0017(16) 0.006(2)
C13 0.128(7) 0.025(3) 0.030(3) -0.002(2) -0.015(3) -0.009(4)
C14 0.076(5) 0.063(5) 0.047(4) 0.005(3) 0.014(3) -0.015(4)
C15 0.061(5) 0.086(5) 0.033(3) 0.016(3) 0.013(3) 0.012(4)
C16 0.052(4) 0.045(3) 0.021(2) 0.001(2) 0.003(2) 0.022(3)
P1 0.0203(6) 0.0273(6) 0.0162(4) -0.0021(4) 0.0021(4) 0.0015(5)
C21 0.019(2) 0.034(2) 0.0203(18) -0.0063(17) 0.0016(15) 0.0037(19)
C22 0.027(3) 0.042(3) 0.022(2) -0.0056(19) 0.0029(17) -0.001(2)
C23 0.030(3) 0.059(4) 0.030(2) -0.018(2) 0.000(2) -0.002(3)
C24 0.048(4) 0.052(4) 0.046(3) -0.025(3) 0.002(3) -0.016(3)
C25 0.058(4) 0.036(3) 0.046(3) -0.007(2) 0.007(3) -0.009(3)
C26 0.038(3) 0.035(3) 0.031(2) -0.002(2) 0.006(2) -0.001(2)
C31 0.026(2) 0.026(2) 0.0175(18) 0.0002(16) 0.0026(16) 0.0033(18)
C32 0.025(3) 0.059(4) 0.030(2) -0.019(2) 0.0039(19) 0.002(2)
C33 0.034(3) 0.069(4) 0.037(3) -0.021(3) 0.014(2) 0.005(3)
C34 0.020(3) 0.058(4) 0.033(2) -0.001(2) 0.0047(19) 0.007(2)
C35 0.027(3) 0.044(3) 0.027(2) -0.003(2) -0.0008(18) 0.003(2)
C36 0.032(3) 0.038(3) 0.021(2) -0.0032(18) 0.0014(18) 0.003(2)
C41 0.024(2) 0.028(2) 0.0234(19) -0.0003(17) -0.0001(17) -0.0004(19)
C42 0.032(3) 0.046(3) 0.038(3) 0.013(2) 0.004(2) 0.000(2)
C43 0.053(4) 0.050(4) 0.055(4) 0.028(3) 0.005(3) -0.003(3)
C44 0.047(4) 0.040(3) 0.066(4) 0.018(3) -0.012(3) 0.003(3)
C45 0.043(4) 0.046(4) 0.065(4) 0.000(3) 0.001(3) 0.016(3)
C46 0.033(3) 0.039(3) 0.036(3) 0.000(2) 0.001(2) 0.008(2)

_geom_special_details            
;
 All esds (except the esd in the dihedral angle between two l.s. planes)
 are estimated using the full covariance matrix.  The cell esds are taken
 into account individually in the estimation of esds in distances, angles
 and torsion angles; correlations between esds in cell parameters are only
 used when they are defined by crystal symmetry.  An approximate (isotropic)
 treatment of cell esds is used for estimating esds involving l.s. planes.
;

loop_
_geom_bond_atom_site_label_1
_geom_bond_atom_site_label_2
_geom_bond_distance
_geom_bond_site_symmetry_2
_geom_bond_publ_flag
Cu1 N1 2.069(4) . ?
Cu1 N12 2.121(4) . ?
Cu1 P1 2.2061(12) . ?
Cu1 I1 2.6065(7) . ?
N1 N2 1.312(7) . ?
N1 C5 1.346(7) . ?
N2 C6 1.353(9) . ?
N2 C3 1.426(9) . ?
C3 C4 1.337(10) . ?
C3 H3 0.9500 . ?
C4 C5 1.409(7) . ?
C4 H4 0.9500 . ?
C5 C11 1.449(9) . ?
C6 H6A 0.9800 . ?
C6 H6B 0.9800 . ?
C6 H6C 0.9800 . ?
C11 N12 1.340(7) . ?
C11 C16 1.386(8) . ?
N12 C13 1.378(9) . ?
C13 C14 1.333(9) . ?
C13 H13 0.9500 . ?
C14 C15 1.366(10) . ?
C14 H14 0.9500 . ?
C15 C16 1.385(10) . ?
C15 H15 0.9500 . ?
C16 H16 0.9500 . ?
P1 C31 1.820(5) . ?
P1 C21 1.821(5) . ?
P1 C41 1.823(5) . ?
C21 C22 1.394(6) . ?
C21 C26 1.394(7) . ?
C22 C23 1.388(7) . ?
C22 H22 0.9500 . ?
C23 C24 1.377(9) . ?
C23 H23 0.9500 . ?
C24 C25 1.373(9) . ?
C24 H24 0.9500 . ?
C25 C26 1.394(8) . ?
C25 H25 0.9500 . ?
C26 H26 0.9500 . ?
C31 C36 1.384(7) . ?
C31 C32 1.387(6) . ?
C32 C33 1.391(8) . ?
C32 H32 0.9500 . ?
C33 C34 1.380(8) . ?
C33 H33 0.9500 . ?
C34 C35 1.384(7) . ?
C34 H34 0.9500 . ?
C35 C36 1.390(7) . ?
C35 H35 0.9500 . ?
C36 H36 0.9500 . ?
C41 C42 1.385(7) . ?
C41 C46 1.387(7) . ?
C42 C43 1.399(8) . ?
C42 H42 0.9500 . ?
C43 C44 1.370(10) . ?
C43 H43 0.9500 . ?
C44 C45 1.378(10) . ?
C44 H44 0.9500 . ?
C45 C46 1.385(8) . ?
C45 H45 0.9500 . ?
C46 H46 0.9500 . ?

loop_
_geom_angle_atom_site_label_1
_geom_angle_atom_site_label_2
_geom_angle_atom_site_label_3
_geom_angle
_geom_angle_site_symmetry_1
_geom_angle_site_symmetry_3
_geom_angle_publ_flag
N1 Cu1 N12 78.03(18) . . ?
N1 Cu1 P1 122.31(11) . . ?
N12 Cu1 P1 111.64(11) . . ?
N1 Cu1 I1 106.35(12) . . ?
N12 Cu1 I1 112.78(11) . . ?
P1 Cu1 I1 118.85(4) . . ?
N2 N1 C5 104.2(5) . . ?
N2 N1 Cu1 141.2(4) . . ?
C5 N1 Cu1 114.6(4) . . ?
N1 N2 C6 119.5(6) . . ?
N1 N2 C3 112.5(6) . . ?
C6 N2 C3 127.9(6) . . ?
C4 C3 N2 105.5(6) . . ?
C4 C3 H3 127.3 . . ?
N2 C3 H3 127.3 . . ?
C3 C4 C5 105.7(6) . . ?
C3 C4 H4 127.2 . . ?
C5 C4 H4 127.2 . . ?
N1 C5 C4 112.1(6) . . ?
N1 C5 C11 117.8(5) . . ?
C4 C5 C11 130.0(5) . . ?
N2 C6 H6A 109.5 . . ?
N2 C6 H6B 109.5 . . ?
H6A C6 H6B 109.5 . . ?
N2 C6 H6C 109.5 . . ?
H6A C6 H6C 109.5 . . ?
H6B C6 H6C 109.5 . . ?
N12 C11 C16 120.4(6) . . ?
N12 C11 C5 114.7(5) . . ?
C16 C11 C5 124.8(5) . . ?
C11 N12 C13 116.9(5) . . ?
C11 N12 Cu1 114.7(4) . . ?
C13 N12 Cu1 128.3(4) . . ?
C14 C13 N12 127.2(8) . . ?
C14 C13 H13 116.4 . . ?
N12 C13 H13 116.4 . . ?
C13 C14 C15 113.7(8) . . ?
C13 C14 H14 123.2 . . ?
C15 C14 H14 123.2 . . ?
C14 C15 C16 123.5(8) . . ?
C14 C15 H15 118.3 . . ?
C16 C15 H15 118.3 . . ?
C15 C16 C11 118.2(6) . . ?
C15 C16 H16 120.9 . . ?
C11 C16 H16 120.9 . . ?
C31 P1 C21 104.0(2) . . ?
C31 P1 C41 102.1(2) . . ?
C21 P1 C41 102.8(2) . . ?
C31 P1 Cu1 116.42(14) . . ?
C21 P1 Cu1 116.47(15) . . ?
C41 P1 Cu1 113.12(15) . . ?
C22 C21 C26 118.6(5) . . ?
C22 C21 P1 123.9(4) . . ?
C26 C21 P1 117.6(3) . . ?
C23 C22 C21 120.6(5) . . ?
C23 C22 H22 119.7 . . ?
C21 C22 H22 119.7 . . ?
C24 C23 C22 119.9(5) . . ?
C24 C23 H23 120.0 . . ?
C22 C23 H23 120.0 . . ?
C25 C24 C23 120.7(5) . . ?
C25 C24 H24 119.6 . . ?
C23 C24 H24 119.6 . . ?
C24 C25 C26 119.6(6) . . ?
C24 C25 H25 120.2 . . ?
C26 C25 H25 120.2 . . ?
C25 C26 C21 120.6(5) . . ?
C25 C26 H26 119.7 . . ?
C21 C26 H26 119.7 . . ?
C36 C31 C32 119.1(5) . . ?
C36 C31 P1 116.9(3) . . ?
C32 C31 P1 124.0(4) . . ?
C31 C32 C33 119.7(5) . . ?
C31 C32 H32 120.1 . . ?
C33 C32 H32 120.1 . . ?
C34 C33 C32 121.3(5) . . ?
C34 C33 H33 119.4 . . ?
C32 C33 H33 119.3 . . ?
C33 C34 C35 118.9(5) . . ?
C33 C34 H34 120.6 . . ?
C35 C34 H34 120.6 . . ?
C34 C35 C36 120.2(5) . . ?
C34 C35 H35 119.9 . . ?
C36 C35 H35 119.9 . . ?
C31 C36 C35 120.8(4) . . ?
C31 C36 H36 119.6 . . ?
C35 C36 H36 119.6 . . ?
C42 C41 C46 119.0(5) . . ?
C42 C41 P1 123.3(4) . . ?
C46 C41 P1 117.7(4) . . ?
C41 C42 C43 120.2(6) . . ?
C41 C42 H42 119.9 . . ?
C43 C42 H42 119.9 . . ?
C44 C43 C42 119.9(6) . . ?
C44 C43 H43 120.0 . . ?
C42 C43 H43 120.0 . . ?
C43 C44 C45 120.3(6) . . ?
C43 C44 H44 119.8 . . ?
C45 C44 H44 119.8 . . ?
C44 C45 C46 119.9(6) . . ?
C44 C45 H45 120.0 . . ?
C46 C45 H45 120.0 . . ?
C45 C46 C41 120.6(6) . . ?
C45 C46 H46 119.7 . . ?
C41 C46 H46 119.7 . . ?

loop_
_geom_torsion_atom_site_label_1
_geom_torsion_atom_site_label_2
_geom_torsion_atom_site_label_3
_geom_torsion_atom_site_label_4
_geom_torsion
_geom_torsion_site_symmetry_1
_geom_torsion_site_symmetry_2
_geom_torsion_site_symmetry_3
_geom_torsion_site_symmetry_4
_geom_torsion_publ_flag
C5 N1 N2 C6 -178.4(5) . . . . ?
Cu1 N1 N2 C6 -0.5(8) . . . . ?
C5 N1 N2 C3 0.2(5) . . . . ?
Cu1 N1 N2 C3 178.0(4) . . . . ?
N1 N2 C3 C4 0.1(6) . . . . ?
C6 N2 C3 C4 178.5(6) . . . . ?
N2 C3 C4 C5 -0.3(5) . . . . ?
N2 N1 C5 C4 -0.3(5) . . . . ?
Cu1 N1 C5 C4 -178.9(3) . . . . ?
N2 N1 C5 C11 177.5(4) . . . . ?
Cu1 N1 C5 C11 -1.0(5) . . . . ?
C3 C4 C5 N1 0.4(5) . . . . ?
C3 C4 C5 C11 -177.2(5) . . . . ?
N1 C5 C11 N12 -2.0(6) . . . . ?
C4 C5 C11 N12 175.4(4) . . . . ?
N1 C5 C11 C16 179.3(4) . . . . ?
C4 C5 C11 C16 -3.3(8) . . . . ?
C16 C11 N12 C13 0.4(6) . . . . ?
C5 C11 N12 C13 -178.3(4) . . . . ?
C16 C11 N12 Cu1 -177.3(3) . . . . ?
C5 C11 N12 Cu1 4.0(5) . . . . ?
C11 N12 C13 C14 0.9(9) . . . . ?
Cu1 N12 C13 C14 178.3(5) . . . . ?
N12 C13 C14 C15 -2.1(10) . . . . ?
C13 C14 C15 C16 2.1(9) . . . . ?
C14 C15 C16 C11 -1.0(9) . . . . ?
N12 C11 C16 C15 -0.4(7) . . . . ?
C5 C11 C16 C15 178.2(5) . . . . ?
C31 P1 C21 C22 -86.2(4) . . . . ?
C41 P1 C21 C22 20.0(5) . . . . ?
Cu1 P1 C21 C22 144.3(4) . . . . ?
C31 P1 C21 C26 95.0(4) . . . . ?
C41 P1 C21 C26 -158.9(4) . . . . ?
Cu1 P1 C21 C26 -34.6(4) . . . . ?
C26 C21 C22 C23 0.4(7) . . . . ?
P1 C21 C22 C23 -178.4(4) . . . . ?
C21 C22 C23 C24 -0.5(8) . . . . ?
C22 C23 C24 C25 -0.3(9) . . . . ?
C23 C24 C25 C26 1.2(10) . . . . ?
C24 C25 C26 C21 -1.3(9) . . . . ?
C22 C21 C26 C25 0.5(8) . . . . ?
P1 C21 C26 C25 179.5(4) . . . . ?
C21 P1 C31 C36 -165.0(4) . . . . ?
C41 P1 C31 C36 88.3(4) . . . . ?
Cu1 P1 C31 C36 -35.4(4) . . . . ?
C21 P1 C31 C32 17.9(5) . . . . ?
C41 P1 C31 C32 -88.9(5) . . . . ?
Cu1 P1 C31 C32 147.4(4) . . . . ?
C36 C31 C32 C33 -1.4(8) . . . . ?
P1 C31 C32 C33 175.7(5) . . . . ?
C31 C32 C33 C34 0.0(10) . . . . ?
C32 C33 C34 C35 0.1(10) . . . . ?
C33 C34 C35 C36 1.1(9) . . . . ?
C32 C31 C36 C35 2.6(8) . . . . ?
P1 C31 C36 C35 -174.7(4) . . . . ?
C34 C35 C36 C31 -2.5(8) . . . . ?
C31 P1 C41 C42 15.8(5) . . . . ?
C21 P1 C41 C42 -91.8(5) . . . . ?
Cu1 P1 C41 C42 141.7(4) . . . . ?
C31 P1 C41 C46 -163.7(4) . . . . ?
C21 P1 C41 C46 88.7(4) . . . . ?
Cu1 P1 C41 C46 -37.8(4) . . . . ?
C46 C41 C42 C43 0.3(8) . . . . ?
P1 C41 C42 C43 -179.3(5) . . . . ?
C41 C42 C43 C44 0.5(10) . . . . ?
C42 C43 C44 C45 -1.3(11) . . . . ?
C43 C44 C45 C46 1.4(10) . . . . ?
C44 C45 C46 C41 -0.7(9) . . . . ?
C42 C41 C46 C45 -0.2(8) . . . . ?
P1 C41 C46 C45 179.4(5) . . . . ?

_refine_diff_density_max         3.235
_refine_diff_density_min         -3.073
_refine_diff_density_rms         0.134

_shelx_res_file                  
;
TITL Metil - P2(1)/n
    shelx.res
    created by SHELXL-2018/3 at 16:51:36 on 23-Jul-2021
CELL  0.71073   9.0460  14.9018  22.3981   90.000   98.696   90.000
ZERR     4.00   0.0010   0.0017   0.0026    0.000    0.002    0.000
LATT   1
SYMM  1/2 - X, 1/2 + Y, 1/2 - Z
SFAC  C    H    CU   I    N    P
UNIT  108 96 4 4 12 4
MERG   2
ABIN
FMAP   2
PLAN   20
SIZE     0.080   0.100   0.360
ACTA
BOND   $H
CONF
L.S.   5    0   61
TEMP  -123.13
WGHT    0.051100   15.652301
FVAR       0.27466
CU1   3    0.651385    0.393867    0.876598    11.00000    0.02534    0.03330 =
         0.01674   -0.00313    0.00400    0.00245
I1    4    0.819516    0.294217    0.954993    11.00000    0.05383    0.04736 =
         0.02385    0.00085    0.00548    0.02215
N1    5    0.445763    0.402345    0.905997    11.00000    0.01893    0.05826 =
         0.01981    0.00195    0.00160   -0.00176
N2    5    0.331911    0.352307    0.915017    11.00000    0.04100    0.07296 =
         0.03141    0.00532   -0.00056   -0.01143
C3    1    0.219991    0.401947    0.939285    11.00000    0.04711    0.07418 =
         0.02885   -0.00370   -0.00919    0.01090
AFIX  43
H3    2    0.128454    0.379829    0.949410    11.00000   -1.20000
AFIX   0
C4    1    0.271112    0.486186    0.944775    11.00000    0.02642    0.06950 =
         0.01880   -0.00588   -0.00071    0.01629
AFIX  43
H4    2    0.223254    0.536551    0.959491    11.00000   -1.20000
AFIX   0
C5    1    0.410785    0.484690    0.924181    11.00000    0.03397    0.07002 =
         0.00956   -0.00418   -0.00242    0.02428
C6    1    0.333171    0.263493    0.902527    11.00000    0.06583    0.07713 =
         0.04635    0.00421    0.01171   -0.00284
AFIX 137
H6A   2    0.311934    0.254561    0.858719    11.00000   -1.50000
H6B   2    0.256730    0.233040    0.921788    11.00000   -1.50000
H6C   2    0.431760    0.238553    0.918027    11.00000   -1.50000
AFIX   0
C11   1    0.519089    0.555818    0.922144    11.00000    0.04097    0.05170 =
         0.01388   -0.00273   -0.00338    0.01937
N12   5    0.646722    0.530066    0.903706    11.00000    0.04134    0.03465 =
         0.02060   -0.00279    0.00169    0.00627
C13   1    0.755008    0.594841    0.902568    11.00000    0.12766    0.02531 =
         0.03040   -0.00195   -0.01464   -0.00948
AFIX  43
H13   2    0.844547    0.576214    0.888863    11.00000   -1.20000
AFIX   0
C14   1    0.748068    0.680708    0.918558    11.00000    0.07643    0.06312 =
         0.04664    0.00531    0.01378   -0.01457
AFIX  43
H14   2    0.828237    0.721721    0.917974    11.00000   -1.20000
AFIX   0
C15   1    0.614904    0.704207    0.935859    11.00000    0.06065    0.08605 =
         0.03263    0.01582    0.01314    0.01239
AFIX  43
H15   2    0.600814    0.764967    0.946539    11.00000   -1.20000
AFIX   0
C16   1    0.499293    0.644141    0.938661    11.00000    0.05237    0.04526 =
         0.02053    0.00122    0.00255    0.02171
AFIX  43
H16   2    0.408879    0.662971    0.951555    11.00000   -1.20000
AFIX   0
P1    6    0.673204    0.381517    0.780167    11.00000    0.02033    0.02730 =
         0.01622   -0.00210    0.00206    0.00150
C21   1    0.562537    0.293920    0.737860    11.00000    0.01862    0.03416 =
         0.02034   -0.00632    0.00159    0.00368
C22   1    0.497154    0.302468    0.677676    11.00000    0.02743    0.04193 =
         0.02157   -0.00558    0.00294   -0.00116
AFIX  43
H22   2    0.511505    0.355965    0.656207    11.00000   -1.20000
AFIX   0
C23   1    0.411261    0.233488    0.648846    11.00000    0.02986    0.05926 =
         0.03017   -0.01763   -0.00045   -0.00184
AFIX  43
H23   2    0.366351    0.240036    0.607913    11.00000   -1.20000
AFIX   0
C24   1    0.391205    0.155517    0.679656    11.00000    0.04839    0.05234 =
         0.04646   -0.02487    0.00234   -0.01632
AFIX  43
H24   2    0.331976    0.108561    0.659796    11.00000   -1.20000
AFIX   0
C25   1    0.455869    0.144901    0.738759    11.00000    0.05831    0.03588 =
         0.04641   -0.00711    0.00667   -0.00945
AFIX  43
H25   2    0.443035    0.090469    0.759452    11.00000   -1.20000
AFIX   0
C26   1    0.540469    0.214486    0.768212    11.00000    0.03841    0.03461 =
         0.03148   -0.00171    0.00571   -0.00099
AFIX  43
H26   2    0.583498    0.207720    0.809357    11.00000   -1.20000
AFIX   0
C31   1    0.861273    0.363607    0.762907    11.00000    0.02574    0.02642 =
         0.01749    0.00020    0.00257    0.00333
C32   1    0.893398    0.313565    0.714241    11.00000    0.02498    0.05913 =
         0.03041   -0.01948    0.00390    0.00160
AFIX  43
H32   2    0.815735    0.282747    0.689072    11.00000   -1.20000
AFIX   0
C33   1    1.039764    0.308707    0.702458    11.00000    0.03418    0.06896 =
         0.03671   -0.02081    0.01395    0.00462
AFIX  43
H33   2    1.061097    0.274371    0.669054    11.00000   -1.20000
AFIX   0
C34   1    1.154630    0.352777    0.738327    11.00000    0.02001    0.05820 =
         0.03277   -0.00135    0.00470    0.00710
AFIX  43
H34   2    1.254186    0.349038    0.729810    11.00000   -1.20000
AFIX   0
C35   1    1.122365    0.402503    0.786909    11.00000    0.02663    0.04394 =
         0.02703   -0.00329   -0.00079    0.00283
AFIX  43
H35   2    1.199883    0.434113    0.811616    11.00000   -1.20000
AFIX   0
C36   1    0.976771    0.406326    0.799658    11.00000    0.03173    0.03789 =
         0.02140   -0.00315    0.00140    0.00269
AFIX  43
H36   2    0.956336    0.438676    0.834035    11.00000   -1.20000
AFIX   0
C41   1    0.615341    0.482317    0.736754    11.00000    0.02448    0.02794 =
         0.02339   -0.00029   -0.00011   -0.00044
C42   1    0.688206    0.514357    0.690971    11.00000    0.03232    0.04644 =
         0.03794    0.01314    0.00389   -0.00001
AFIX  43
H42   2    0.772106    0.482951    0.680587    11.00000   -1.20000
AFIX   0
C43   1    0.638574    0.592858    0.659972    11.00000    0.05281    0.05043 =
         0.05548    0.02819    0.00487   -0.00311
AFIX  43
H43   2    0.688246    0.614454    0.628375    11.00000   -1.20000
AFIX   0
C44   1    0.518301    0.638541    0.675227    11.00000    0.04663    0.04017 =
         0.06582    0.01779   -0.01172    0.00259
AFIX  43
H44   2    0.486057    0.692516    0.654719    11.00000   -1.20000
AFIX   0
C45   1    0.443825    0.606579    0.720188    11.00000    0.04336    0.04560 =
         0.06510   -0.00034    0.00066    0.01603
AFIX  43
H45   2    0.359079    0.637747    0.729989    11.00000   -1.20000
AFIX   0
C46   1    0.492682    0.528954    0.751072    11.00000    0.03338    0.03948 =
         0.03574    0.00014    0.00052    0.00804
AFIX  43
H46   2    0.441740    0.507474    0.782329    11.00000   -1.20000
AFIX   0
HKLF    4




REM  Metil - P2(1)/n
REM wR2 = 0.1501, GooF = S = 1.015, Restrained GooF = 1.015 for all data
REM R1 = 0.0597 for 5847 Fo > 4sig(Fo) and 0.0984 for all 8616 data
REM 299 parameters refined using 0 restraints

END

WGHT      0.0511     15.6522

REM Highest difference peak  3.235,  deepest hole -3.073,  1-sigma level  0.134
Q1    1   0.7369  0.2748  0.9528  11.00000  0.05    3.23
Q2    1   0.2166  0.3120  0.9311  11.00000  0.05    1.62
Q3    1   0.8285  0.3284  0.9691  11.00000  0.05    1.36
Q4    1   0.8400  0.6164  0.8890  11.00000  0.05    1.18
Q5    1   0.8187  0.3232  0.9415  11.00000  0.05    1.12
Q6    1   0.9984  0.6002  0.9688  11.00000  0.05    1.12
Q7    1   0.8017  0.2410  0.9720  11.00000  0.05    1.06
Q8    1   0.6687  0.6031  0.9119  11.00000  0.05    0.96
Q9    1   0.6506  0.1979  0.8766  11.00000  0.05    0.83
Q10   1   0.5953  0.6516  0.9218  11.00000  0.05    0.77
Q11   1   0.6556  0.4446  0.8962  11.00000  0.05    0.70
Q12   1   0.3000  0.1997  0.5500  11.00000  0.05    0.68
Q13   1   0.6435  0.4418  0.8542  11.00000  0.05    0.65
Q14   1   0.8273  0.4845  0.9535  11.00000  0.05    0.64
Q15   1   0.4994  0.4784  0.7006  11.00000  0.05    0.61
Q16   1   0.9354  0.2979  0.9321  11.00000  0.05    0.58
Q17   1   0.3254  0.6011  0.7927  11.00000  0.05    0.57
Q18   1   0.7213  0.3548  0.9509  11.00000  0.05    0.55
Q19   1   0.4781  0.4973  0.7995  11.00000  0.05    0.55
Q20   1   0.6401  0.3405  0.8494  11.00000  0.05    0.55
;
_shelx_res_checksum              26525

_shelx_fab_file                  
;
    2    0    0    -10.62      0.00
    4    0    0      3.28      0.00
    6    0    0     11.84      0.00
    8    0    0     -3.84      0.00
   10    0    0      1.87      0.00
   12    0    0     -3.82      0.00
    1    1    0    -22.83      0.00
    2    1    0    -25.40      0.00
    3    1    0     13.28      0.00
    4    1    0     14.76      0.00
    5    1    0     -1.40      0.00
    6    1    0     -0.02      0.00
    7    1    0      5.99      0.00
    8    1    0     -3.49      0.00
    9    1    0      0.63      0.00
   10    1    0      0.41      0.00
   11    1    0     -4.09      0.00
   12    1    0     -0.76      0.00
    0    2    0    140.11      0.00
    1    2    0     -2.47      0.00
    2    2    0     -4.46      0.00
    3    2    0    -13.77      0.00
    4    2    0      8.92      0.00
    5    2    0     -4.26      0.00
    6    2    0      4.00      0.00
    7    2    0     -0.16      0.00
    8    2    0     -3.67      0.00
    9    2    0      1.75      0.00
   10    2    0      1.01      0.00
   11    2    0      1.40      0.00
   12    2    0     -2.91      0.00
    1    3    0    -14.50      0.00
    2    3    0    -32.65      0.00
    3    3    0      3.95      0.00
    4    3    0     25.22      0.00
    5    3    0     -2.63      0.00
    6    3    0     -0.84      0.00
    7    3    0      2.84      0.00
    8    3    0     -3.62      0.00
    9    3    0     -0.68      0.00
   10    3    0      0.39      0.00
   11    3    0     -1.28      0.00
   12    3    0     -0.69      0.00
    0    4    0      6.32      0.00
    1    4    0    -12.72      0.00
    2    4    0      3.10      0.00
    3    4    0    -16.94      0.00
    4    4    0     16.15      0.00
    5    4    0     -6.34      0.00
    6    4    0     -4.92      0.00
    7    4    0     -1.99      0.00
    8    4    0     -0.71      0.00
    9    4    0     -0.25      0.00
   10    4    0     -0.05      0.00
   11    4    0      1.08      0.00
   12    4    0     -0.63      0.00
    1    5    0    -11.40      0.00
    2    5    0     -2.33      0.00
    3    5    0      3.04      0.00
    4    5    0      9.42      0.00
    5    5    0     -4.48      0.00
    6    5    0     -0.23      0.00
    7    5    0      1.29      0.00
    8    5    0      0.63      0.00
    9    5    0     -0.33      0.00
   10    5    0     -0.90      0.00
   11    5    0      0.54      0.00
   12    5    0      1.96      0.00
    0    6    0    -26.74      0.00
    1    6    0    -11.43      0.00
    2    6    0     -5.11      0.00
    3    6    0     -8.77      0.00
    4    6    0     10.26      0.00
    5    6    0     -4.88      0.00
    6    6    0     -5.56      0.00
    7    6    0     -3.06      0.00
    8    6    0      0.59      0.00
    9    6    0     -0.42      0.00
   10    6    0      1.49      0.00
   11    6    0      0.92      0.00
   12    6    0     -1.03      0.00
    1    7    0    -13.83      0.00
    2    7    0     17.81      0.00
    3    7    0      4.99      0.00
    4    7    0     -5.07      0.00
    5    7    0     -9.42      0.00
    6    7    0      2.59      0.00
    7    7    0     -1.66      0.00
    8    7    0      2.51      0.00
    9    7    0     -1.44      0.00
   10    7    0     -1.98      0.00
   11    7    0     -2.46      0.00
    0    8    0    -14.35      0.00
    1    8    0      0.13      0.00
    2    8    0    -15.77      0.00
    3    8    0     -0.44      0.00
    4    8    0     -3.70      0.00
    5    8    0     -5.26      0.00
    6    8    0     -0.77      0.00
    7    8    0     -2.58      0.00
    8    8    0     -1.68      0.00
    9    8    0     -0.59      0.00
   10    8    0      3.34      0.00
   11    8    0      0.57      0.00
    1    9    0     -6.45      0.00
    2    9    0     12.13      0.00
    3    9    0      4.53      0.00
    4    9    0     -3.10      0.00
    5    9    0     -9.44      0.00
    6    9    0      3.29      0.00
    7    9    0      0.97      0.00
    8    9    0      3.05      0.00
    9    9    0     -0.54      0.00
   10    9    0      0.55      0.00
   11    9    0     -2.56      0.00
    0   10    0     -3.14      0.00
    1   10    0      9.33      0.00
    2   10    0    -11.82      0.00
    3   10    0     -1.34      0.00
    4   10    0     -6.99      0.00
    5   10    0     -2.66      0.00
    6   10    0      2.62      0.00
    7   10    0      0.59      0.00
    8   10    0     -1.01      0.00
    9   10    0     -1.96      0.00
   10   10    0      3.48      0.00
   11   10    0     -0.60      0.00
    1   11    0      4.24      0.00
    2   11    0     -1.54      0.00
    3   11    0      0.62      0.00
    4   11    0      2.58      0.00
    5   11    0     -2.27      0.00
    6   11    0      2.23      0.00
    7   11    0      1.51      0.00
    8   11    0      3.23      0.00
    9   11    0     -0.76      0.00
   10   11    0      0.47      0.00
    0   12    0     -5.98      0.00
    1   12    0      6.34      0.00
    2   12    0     -5.47      0.00
    3   12    0     -1.71      0.00
    4   12    0     -4.21      0.00
    5   12    0      0.32      0.00
    6   12    0      0.77      0.00
    7   12    0      1.60      0.00
    8   12    0     -1.52      0.00
    9   12    0      0.00      0.00
   10   12    0      1.76      0.00
    1   13    0      7.40      0.00
    2   13    0     -2.18      0.00
    3   13    0     -2.02      0.00
    4   13    0      1.68      0.00
    5   13    0      2.30      0.00
    6   13    0      1.27      0.00
    7   13    0     -1.07      0.00
    8   13    0      1.06      0.00
    9   13    0     -1.75      0.00
    0   14    0     -2.70      0.00
    1   14    0     -1.13      0.00
    2   14    0     -0.23      0.00
    3   14    0     -0.13      0.00
    4   14    0     -0.41      0.00
    5   14    0      0.78      0.00
    6   14    0     -0.01      0.00
    7   14    0      0.02      0.00
    8   14    0      0.70      0.00
    9   14    0     -1.01      0.00
    1   15    0      5.13      0.00
    2   15    0      0.89      0.00
    3   15    0      0.13      0.00
    4   15    0     -2.18      0.00
    5   15    0      3.49      0.00
    6   15    0      1.21      0.00
    7   15    0     -0.35      0.00
    8   15    0     -1.59      0.00
    0   16    0      2.21      0.00
    1   16    0     -2.27      0.00
    2   16    0      1.82      0.00
    3   16    0      1.96      0.00
    4   16    0      1.16      0.00
    5   16    0      2.06      0.00
    6   16    0      0.34      0.00
    7   16    0      0.94      0.00
    8   16    0      0.78      0.00
    1   17    0      0.76      0.00
    2   17    0      1.04      0.00
    3   17    0      3.60      0.00
    4   17    0     -2.70      0.00
    5   17    0     -0.36      0.00
    6   17    0     -1.68      0.00
    7   17    0     -0.31      0.00
    0   18    0      2.02      0.00
    1   18    0     -0.19      0.00
    2   18    0     -2.14      0.00
    3   18    0      2.38      0.00
    4   18    0     -1.49      0.00
    5   18    0     -0.61      0.00
    6   18    0      0.69      0.00
    1   19    0      2.08      0.00
    2   19    0     -1.63      0.00
    3   19    0      3.48      0.00
    4   19    0     -0.23      0.00
    5   19    0     -1.11      0.00
    0   20    0      1.38      0.00
    1   20    0     -1.15      0.00
    2   20    0     -2.94      0.00
    3   20    0     -0.53      0.00
  -11    0    1     -4.63      0.00
   -9    0    1      1.73      0.00
   -7    0    1      0.54      0.00
   -5    0    1     -0.62      0.00
   -3    0    1     18.76      0.00
   -1    0    1    -43.81      0.00
    1    0    1     15.56      0.00
    3    0    1      8.72      0.00
    5    0    1      3.57      0.00
    7    0    1     11.61      0.00
    9    0    1      0.22      0.00
   11    0    1     -3.22      0.00
  -12    1    1     -3.14      0.00
  -11    1    1     -1.03      0.00
  -10    1    1      1.13      0.00
   -9    1    1     -1.69      0.00
   -8    1    1     -1.12      0.00
   -7    1    1     -1.07      0.00
   -6    1    1     15.08      0.00
   -5    1    1      2.01      0.00
   -4    1    1     -4.69      0.00
   -3    1    1      2.32      0.00
   -2    1    1     10.94      0.00
   -1    1    1     -0.89      0.00
    0    1    1    190.31      0.00
    1    1    1     -1.33      0.00
    2    1    1    -25.90      0.00
    3    1    1    -11.42      0.00
    4    1    1     11.48      0.00
    5    1    1     -1.12      0.00
    6    1    1      2.46      0.00
    7    1    1     -0.27      0.00
    8    1    1     -4.56      0.00
    9    1    1      0.80      0.00
   10    1    1      0.79      0.00
   11    1    1      0.30      0.00
   12    1    1     -4.20      0.00
  -12    2    1      2.00      0.00
  -11    2    1     -2.99      0.00
  -10    2    1     -0.89      0.00
   -9    2    1      0.69      0.00
   -8    2    1      5.23      0.00
   -7    2    1     -0.99      0.00
   -6    2    1     -0.71      0.00
   -5    2    1     -2.02      0.00
   -4    2    1    -17.62      0.00
   -3    2    1     11.14      0.00
   -2    2    1     47.82      0.00
   -1    2    1    -33.07      0.00
    0    2    1    -14.65      0.00
    1    2    1     10.48      0.00
    2    2    1    -25.57      0.00
    3    2    1      2.96      0.00
    4    2    1     26.50      0.00
    5    2    1      2.53      0.00
    6    2    1     -2.02      0.00
    7    2    1      7.61      0.00
    8    2    1     -4.03      0.00
    9    2    1     -1.69      0.00
   10    2    1      0.65      0.00
   11    2    1     -1.87      0.00
   12    2    1      0.87      0.00
  -12    3    1     -0.88      0.00
  -11    3    1     -1.04      0.00
  -10    3    1      0.12      0.00
   -9    3    1     -1.39      0.00
   -8    3    1     -1.37      0.00
   -7    3    1     -0.19      0.00
   -6    3    1      3.26      0.00
   -5    3    1      4.76      0.00
   -4    3    1      9.19      0.00
   -3    3    1      7.44      0.00
   -2    3    1      7.92      0.00
   -1    3    1      3.94      0.00
    0    3    1     50.56      0.00
    1    3    1    -12.72      0.00
    2    3    1     -5.44      0.00
    3    3    1    -21.96      0.00
    4    3    1     14.26      0.00
    5    3    1     -4.82      0.00
    6    3    1     -6.32      0.00
    7    3    1     -1.69      0.00
    8    3    1     -1.93      0.00
    9    3    1      0.48      0.00
   10    3    1      0.01      0.00
   11    3    1      1.05      0.00
   12    3    1     -2.57      0.00
  -12    4    1     -0.34      0.00
  -11    4    1     -0.86      0.00
  -10    4    1     -0.12      0.00
   -9    4    1      0.61      0.00
   -8    4    1      1.80      0.00
   -7    4    1     -0.92      0.00
   -6    4    1      1.62      0.00
   -5    4    1     -4.40      0.00
   -4    4    1    -12.35      0.00
   -3    4    1      4.06      0.00
   -2    4    1     29.02      0.00
   -1    4    1    -18.95      0.00
    0    4    1     -5.72      0.00
    1    4    1      2.05      0.00
    2    4    1     -9.32      0.00
    3    4    1     -0.32      0.00
    4    4    1     21.64      0.00
    5    4    1      0.71      0.00
    6    4    1     -1.15      0.00
    7    4    1      4.05      0.00
    8    4    1     -1.49      0.00
    9    4    1     -1.37      0.00
   10    4    1      0.19      0.00
   11    4    1      0.91      0.00
   12    4    1      1.30      0.00
  -12    5    1      0.87      0.00
  -11    5    1     -0.46      0.00
  -10    5    1      0.56      0.00
   -9    5    1      0.87      0.00
   -8    5    1      0.51      0.00
   -7    5    1      1.27      0.00
   -6    5    1     -3.70      0.00
   -5    5    1      2.46      0.00
   -4    5    1     14.51      0.00
   -3    5    1      7.79      0.00
   -2    5    1      0.98      0.00
   -1    5    1      6.51      0.00
    0    5    1    -23.24      0.00
    1    5    1    -20.42      0.00
    2    5    1      2.96      0.00
    3    5    1    -15.48      0.00
    4    5    1     12.87      0.00
    5    5    1     -6.84      0.00
    6    5    1     -8.22      0.00
    7    5    1     -2.76      0.00
    8    5    1      2.18      0.00
    9    5    1     -0.75      0.00
   10    5    1      0.16      0.00
   11    5    1      0.74      0.00
   12    5    1     -1.20      0.00
  -12    6    1     -2.43      0.00
  -11    6    1     -2.73      0.00
  -10    6    1      1.31      0.00
   -9    6    1     -0.06      0.00
   -8    6    1     -2.20      0.00
   -7    6    1     -1.91      0.00
   -6    6    1      1.68      0.00
   -5    6    1     -7.52      0.00
   -4    6    1      1.73      0.00
   -3    6    1      4.91      0.00
   -2    6    1     -4.15      0.00
   -1    6    1    -18.35      0.00
    0    6    1      5.93      0.00
    1    6    1     -6.07      0.00
    2    6    1     12.98      0.00
    3    6    1      1.45      0.00
    4    6    1      0.44      0.00
    5    6    1     -4.22      0.00
    6    6    1      2.72      0.00
    7    6    1     -0.01      0.00
    8    6    1      0.54      0.00
    9    6    1     -1.18      0.00
   10    6    1     -1.96      0.00
   11    6    1      1.06      0.00
  -11    7    1     -1.48      0.00
  -10    7    1      2.66      0.00
   -9    7    1      0.54      0.00
   -8    7    1     -1.38      0.00
   -7    7    1      2.18      0.00
   -6    7    1     -2.73      0.00
   -5    7    1      1.23      0.00
   -4    7    1      0.99      0.00
   -3    7    1      1.19      0.00
   -2    7    1    -10.36      0.00
   -1    7    1     -0.03      0.00
    0    7    1    -23.95      0.00
    1    7    1    -11.03      0.00
    2    7    1     -9.91      0.00
    3    7    1     -3.36      0.00
    4    7    1      3.22      0.00
    5    7    1     -7.31      0.00
    6    7    1     -4.48      0.00
    7    7    1     -2.70      0.00
    8    7    1      0.49      0.00
    9    7    1      0.66      0.00
   10    7    1      1.98      0.00
   11    7    1     -0.08      0.00
  -11    8    1     -4.74      0.00
  -10    8    1      0.80      0.00
   -9    8    1      0.11      0.00
   -8    8    1     -2.82      0.00
   -7    8    1     -1.46      0.00
   -6    8    1     -0.17      0.00
   -5    8    1    -10.14      0.00
   -4    8    1      5.94      0.00
   -3    8    1      7.60      0.00
   -2    8    1    -14.22      0.00
   -1    8    1    -17.08      0.00
    0    8    1      7.04      0.00
    1    8    1     -6.85      0.00
    2    8    1     19.31      0.00
    3    8    1      0.54      0.00
    4    8    1     -5.77      0.00
    5    8    1    -10.09      0.00
    6    8    1      4.80      0.00
    7    8    1     -1.03      0.00
    8    8    1      2.12      0.00
    9    8    1     -2.04      0.00
   10    8    1     -1.19      0.00
   11    8    1     -2.46      0.00
  -11    9    1     -0.15      0.00
  -10    9    1      3.34      0.00
   -9    9    1      1.39      0.00
   -8    9    1     -2.91      0.00
   -7    9    1      0.99      0.00
   -6    9    1      2.26      0.00
   -5    9    1      2.84      0.00
   -4    9    1    -10.99      0.00
   -3    9    1     -1.93      0.00
   -2    9    1    -11.76      0.00
   -1    9    1     -8.24      0.00
    0    9    1     -6.37      0.00
    1    9    1      4.25      0.00
    2    9    1    -14.91      0.00
    3    9    1     -1.04      0.00
    4    9    1     -3.44      0.00
    5    9    1     -5.58      0.00
    6    9    1      0.65      0.00
    7    9    1      0.01      0.00
    8    9    1     -0.19      0.00
    9    9    1     -1.40      0.00
   10    9    1      3.50      0.00
   11    9    1     -0.82      0.00
  -11   10    1      0.12      0.00
  -10   10    1     -0.41      0.00
   -9   10    1      0.68      0.00
   -8   10    1     -2.25      0.00
   -7   10    1      1.90      0.00
   -6   10    1     -1.76      0.00
   -5   10    1     -5.91      0.00
   -4   10    1      0.42      0.00
   -3   10    1      5.22      0.00
   -2   10    1     -1.21      0.00
   -1   10    1     -3.41      0.00
    0   10    1      2.41      0.00
    1   10    1      0.74      0.00
    2   10    1      5.88      0.00
    3   10    1     -1.54      0.00
    4   10    1      0.69      0.00
    5   10    1     -5.10      0.00
    6   10    1      2.99      0.00
    7   10    1      2.02      0.00
    8   10    1      3.28      0.00
    9   10    1     -1.00      0.00
   10   10    1      1.24      0.00
  -10   11    1      2.98      0.00
   -9   11    1     -0.36      0.00
   -8   11    1     -2.71      0.00
   -7   11    1     -1.85      0.00
   -6   11    1      1.28      0.00
   -5   11    1      0.48      0.00
   -4   11    1     -7.91      0.00
   -3   11    1     -0.78      0.00
   -2   11    1     -6.21      0.00
   -1   11    1     -9.30      0.00
    0   11    1     -3.18      0.00
    1   11    1      9.06      0.00
    2   11    1     -7.51      0.00
    3   11    1     -4.04      0.00
    4   11    1     -3.48      0.00
    5   11    1     -0.12      0.00
    6   11    1      2.17      0.00
    7   11    1      1.59      0.00
    8   11    1      0.16      0.00
    9   11    1     -1.67      0.00
   10   11    1      2.98      0.00
  -10   12    1      0.87      0.00
   -9   12    1     -1.18      0.00
   -8   12    1     -1.93      0.00
   -7   12    1      0.90      0.00
   -6   12    1     -2.45      0.00
   -5   12    1      0.22      0.00
   -4   12    1     -1.69      0.00
   -3   12    1     -0.24      0.00
   -2   12    1      4.67      0.00
   -1   12    1      7.45      0.00
    0   12    1     -1.03      0.00
    1   12    1      3.41      0.00
    2   12    1     -1.10      0.00
    3   12    1     -3.42      0.00
    4   12    1      3.39      0.00
    5   12    1      0.72      0.00
    6   12    1      0.58      0.00
    7   12    1     -1.20      0.00
    8   12    1      2.66      0.00
    9   12    1     -1.63      0.00
   10   12    1      0.02      0.00
   -9   13    1     -0.03      0.00
   -8   13    1     -1.61      0.00
   -7   13    1     -0.50      0.00
   -6   13    1     -1.43      0.00
   -5   13    1     -0.14      0.00
   -4   13    1     -2.64      0.00
   -3   13    1     -0.18      0.00
   -2   13    1     -3.32      0.00
   -1   13    1     -1.98      0.00
    0   13    1     -4.28      0.00
    1   13    1      2.36      0.00
    2   13    1     -0.64      0.00
    3   13    1     -1.82      0.00
    4   13    1     -2.40      0.00
    5   13    1      1.26      0.00
    6   13    1      1.50      0.00
    7   13    1      0.49      0.00
    8   13    1     -0.25      0.00
    9   13    1      0.04      0.00
   -9   14    1     -0.95      0.00
   -8   14    1      1.07      0.00
   -7   14    1      0.92      0.00
   -6   14    1     -2.45      0.00
   -5   14    1      3.68      0.00
   -4   14    1      1.37      0.00
   -3   14    1     -0.54      0.00
   -2   14    1      1.51      0.00
   -1   14    1      8.03      0.00
    0   14    1     -0.48      0.00
    1   14    1      4.30      0.00
    2   14    1      0.76      0.00
    3   14    1     -2.88      0.00
    4   14    1      0.40      0.00
    5   14    1      2.68      0.00
    6   14    1      0.20      0.00
    7   14    1     -2.24      0.00
    8   14    1     -0.28      0.00
    9   14    1     -1.34      0.00
   -8   15    1      0.41      0.00
   -7   15    1      0.87      0.00
   -6   15    1     -0.39      0.00
   -5   15    1     -2.52      0.00
   -4   15    1      1.08      0.00
   -3   15    1      0.24      0.00
   -2   15    1      0.37      0.00
   -1   15    1      2.79      0.00
    0   15    1      0.79      0.00
    1   15    1     -2.67      0.00
    2   15    1      3.83      0.00
    3   15    1      1.26      0.00
    4   15    1      1.58      0.00
    5   15    1      1.36      0.00
    6   15    1      0.77      0.00
    7   15    1      0.20      0.00
    8   15    1      1.90      0.00
   -8   16    1      1.42      0.00
   -7   16    1      0.23      0.00
   -6   16    1     -0.95      0.00
   -5   16    1      2.02      0.00
   -4   16    1      2.62      0.00
   -3   16    1      3.17      0.00
   -2   16    1     -2.35      0.00
   -1   16    1      2.29      0.00
    0   16    1      0.28      0.00
    1   16    1      2.54      0.00
    2   16    1      1.08      0.00
    3   16    1      0.82      0.00
    4   16    1     -3.11      0.00
    5   16    1      1.43      0.00
    6   16    1     -0.40      0.00
    7   16    1     -0.17      0.00
    8   16    1     -0.84      0.00
   -7   17    1     -1.81      0.00
   -6   17    1      0.90      0.00
   -5   17    1     -1.30      0.00
   -4   17    1     -1.06      0.00
   -3   17    1     -0.84      0.00
   -2   17    1     -0.15      0.00
   -1   17    1      1.41      0.00
    0   17    1      2.34      0.00
    1   17    1     -0.85      0.00
    2   17    1      0.52      0.00
    3   17    1      3.83      0.00
    4   17    1      1.01      0.00
    5   17    1      0.69      0.00
    6   17    1     -0.06      0.00
    7   17    1      1.52      0.00
   -6   18    1      1.55      0.00
   -5   18    1     -0.92      0.00
   -4   18    1      0.58      0.00
   -3   18    1      4.28      0.00
   -2   18    1     -0.86      0.00
   -1   18    1      0.29      0.00
    0   18    1      0.43      0.00
    1   18    1      1.80      0.00
    2   18    1     -1.45      0.00
    3   18    1      2.63      0.00
    4   18    1     -1.58      0.00
    5   18    1     -1.86      0.00
    6   18    1     -3.20      0.00
   -5   19    1      2.68      0.00
   -4   19    1     -1.66      0.00
   -3   19    1      0.09      0.00
   -2   19    1     -2.14      0.00
   -1   19    1      1.42      0.00
    0   19    1      1.02      0.00
    1   19    1      0.38      0.00
    2   19    1     -3.62      0.00
    3   19    1      1.42      0.00
    4   19    1     -0.51      0.00
    5   19    1     -0.40      0.00
   -3   20    1      2.69      0.00
   -2   20    1      1.24      0.00
   -1   20    1      1.77      0.00
    0   20    1     -0.05      0.00
    1   20    1      3.32      0.00
    2   20    1     -1.96      0.00
    3   20    1      2.02      0.00
  -12    0    2     -2.74      0.00
  -10    0    2      0.07      0.00
   -8    0    2      2.74      0.00
   -6    0    2     18.15      0.00
   -4    0    2    -17.39      0.00
   -2    0    2     28.24      0.00
    0    0    2    153.68      0.00
    2    0    2    -38.22      0.00
    4    0    2     14.33      0.00
    6    0    2     -0.75      0.00
    8    0    2     -3.35      0.00
   10    0    2     -1.34      0.00
   12    0    2     -4.54      0.00
  -12    1    2      0.98      0.00
  -11    1    2     -3.29      0.00
  -10    1    2     -1.29      0.00
   -9    1    2      1.10      0.00
   -8    1    2      3.45      0.00
   -7    1    2     -4.88      0.00
   -6    1    2     -1.23      0.00
   -5    1    2      4.72      0.00
   -4    1    2     -6.03      0.00
   -3    1    2     16.05      0.00
   -2    1    2     34.30      0.00
   -1    1    2    -31.17      0.00
    0    1    2    -19.28      0.00
    1    1    2     51.69      0.00
    2    1    2    -11.48      0.00
    3    1    2     -0.99      0.00
    4    1    2     14.82      0.00
    5    1    2      9.88      0.00
    6    1    2     -2.60      0.00
    7    1    2     11.09      0.00
    8    1    2     -2.18      0.00
    9    1    2     -0.75      0.00
   10    1    2      0.50      0.00
   11    1    2     -0.96      0.00
   12    1    2      1.94      0.00
  -12    2    2     -1.84      0.00
  -11    2    2     -0.61      0.00
  -10    2    2      0.10      0.00
   -9    2    2     -2.27      0.00
   -8    2    2      1.35      0.00
   -7    2    2     -2.48      0.00
   -6    2    2     10.94      0.00
   -5    2    2      1.62      0.00
   -4    2    2     -5.70      0.00
   -3    2    2     -4.53      0.00
   -2    2    2     19.10      0.00
   -1    2    2      2.41      0.00
    0    2    2     78.90      0.00
    1    2    2     -7.96      0.00
    2    2    2    -21.03      0.00
    3    2    2    -19.83      0.00
    4    2    2     12.51      0.00
    5    2    2     -0.02      0.00
    6    2    2     -5.52      0.00
    7    2    2     -1.11      0.00
    8    2    2     -2.17      0.00
    9    2    2      0.50      0.00
   10    2    2     -1.04      0.00
   11    2    2     -0.17      0.00
   12    2    2     -4.39      0.00
  -12    3    2      0.91      0.00
  -11    3    2     -1.55      0.00
  -10    3    2     -1.26      0.00
   -9    3    2      0.67      0.00
   -8    3    2      4.79      0.00
   -7    3    2     -4.59      0.00
   -6    3    2      0.36      0.00
   -5    3    2      0.15      0.00
   -4    3    2     -7.10      0.00
   -3    3    2      6.92      0.00
   -2    3    2     51.64      0.00
   -1    3    2    -18.47      0.00
    0    3    2    -25.28      0.00
    1    3    2     25.93      0.00
    2    3    2    -12.64      0.00
    3    3    2     -3.73      0.00
    4    3    2     26.14      0.00
    5    3    2      7.11      0.00
    6    3    2     -3.81      0.00
    7    3    2      5.06      0.00
    8    3    2     -2.62      0.00
    9    3    2     -2.36      0.00
   10    3    2      1.11      0.00
   11    3    2      0.20      0.00
   12    3    2      2.80      0.00
  -12    4    2      1.53      0.00
  -11    4    2      0.54      0.00
  -10    4    2      0.03      0.00
   -9    4    2     -0.22      0.00
   -8    4    2      0.93      0.00
   -7    4    2     -0.93      0.00
   -6    4    2      0.60      0.00
   -5    4    2      0.61      0.00
   -4    4    2     10.77      0.00
   -3    4    2     -1.45      0.00
   -2    4    2      5.16      0.00
   -1    4    2      3.96      0.00
    0    4    2    -13.62      0.00
    1    4    2    -20.89      0.00
    2    4    2      4.91      0.00
    3    4    2    -17.99      0.00
    4    4    2      9.22      0.00
    5    4    2     -4.09      0.00
    6    4    2     -9.19      0.00
    7    4    2     -1.98      0.00
    8    4    2      2.59      0.00
    9    4    2     -0.69      0.00
   10    4    2     -0.35      0.00
   11    4    2      0.74      0.00
   12    4    2     -2.20      0.00
  -12    5    2     -1.63      0.00
  -11    5    2     -2.47      0.00
  -10    5    2      0.28      0.00
   -9    5    2      1.03      0.00
   -8    5    2      0.58      0.00
   -7    5    2     -2.90      0.00
   -6    5    2      4.03      0.00
   -5    5    2     -4.64      0.00
   -4    5    2      1.29      0.00
   -3    5    2      2.86      0.00
   -2    5    2     18.78      0.00
   -1    5    2    -16.32      0.00
    0    5    2     -0.14      0.00
    1    5    2      4.94      0.00
    2    5    2      3.06      0.00
    3    5    2     -1.52      0.00
    4    5    2      8.76      0.00
    5    5    2      2.95      0.00
    6    5    2      0.12      0.00
    7    5    2      1.35      0.00
    8    5    2     -1.36      0.00
    9    5    2     -0.28      0.00
   10    5    2     -0.21      0.00
   11    5    2      1.81      0.00
   12    5    2      1.53      0.00
  -12    6    2      2.28      0.00
  -11    6    2     -0.86      0.00
  -10    6    2      1.14      0.00
   -9    6    2      0.42      0.00
   -8    6    2      0.18      0.00
   -7    6    2     -0.28      0.00
   -6    6    2     -3.66      0.00
   -5    6    2     -2.93      0.00
   -4    6    2      7.78      0.00
   -3    6    2     -0.98      0.00
   -2    6    2     -4.06      0.00
   -1    6    2     -1.73      0.00
    0    6    2    -32.47      0.00
    1    6    2    -19.31      0.00
    2    6    2      3.49      0.00
    3    6    2     -5.80      0.00
    4    6    2      4.10      0.00
    5    6    2     -7.10      0.00
    6    6    2     -6.69      0.00
    7    6    2     -1.85      0.00
    8    6    2      3.67      0.00
    9    6    2     -0.34      0.00
   10    6    2      0.53      0.00
   11    6    2     -0.64      0.00
  -11    7    2     -5.62      0.00
  -10    7    2      1.40      0.00
   -9    7    2      0.92      0.00
   -8    7    2     -2.32      0.00
   -7    7    2     -2.96      0.00
   -6    7    2      4.51      0.00
   -5    7    2     -7.84      0.00
   -4    7    2      6.24      0.00
   -3    7    2      4.69      0.00
   -2    7    2     -7.32      0.00
   -1    7    2    -22.10      0.00
    0    7    2     12.69      0.00
    1    7    2     -4.43      0.00
    2    7    2     15.92      0.00
    3    7    2     -2.51      0.00
    4    7    2     -6.36      0.00
    5    7    2     -5.88      0.00
    6    7    2      4.11      0.00
    7    7    2     -2.49      0.00
    8    7    2     -0.10      0.00
    9    7    2     -1.50      0.00
   10    7    2     -1.82      0.00
   11    7    2     -0.15      0.00
  -11    8    2     -1.02      0.00
  -10    8    2      1.98      0.00
   -9    8    2      0.72      0.00
   -8    8    2     -2.96      0.00
   -7    8    2      0.56      0.00
   -6    8    2     -0.10      0.00
   -5    8    2     -0.42      0.00
   -4    8    2     -9.75      0.00
   -3    8    2     -3.83      0.00
   -2    8    2     -6.97      0.00
   -1    8    2     -7.69      0.00
    0    8    2    -16.03      0.00
    1    8    2     -3.54      0.00
    2    8    2    -10.50      0.00
    3    8    2      1.12      0.00
    4    8    2     -0.63      0.00
    5    8    2     -7.34      0.00
    6    8    2     -2.42      0.00
    7    8    2      0.56      0.00
    8    8    2      0.10      0.00
    9    8    2      0.41      0.00
   10    8    2      2.29      0.00
   11    8    2     -1.71      0.00
  -11    9    2     -2.67      0.00
  -10    9    2      0.51      0.00
   -9    9    2      1.66      0.00
   -8    9    2     -1.26      0.00
   -7    9    2     -0.11      0.00
   -6    9    2      1.91      0.00
   -5    9    2     -7.16      0.00
   -4    9    2      3.76      0.00
   -3    9    2      6.36      0.00
   -2    9    2     -4.93      0.00
   -1    9    2    -15.95      0.00
    0    9    2      8.16      0.00
    1    9    2     -1.76      0.00
    2    9    2     12.68      0.00
    3    9    2     -5.36      0.00
    4    9    2     -2.92      0.00
    5    9    2     -7.49      0.00
    6    9    2      3.51      0.00
    7    9    2      0.58      0.00
    8    9    2      2.00      0.00
    9    9    2     -1.88      0.00
   10    9    2      0.21      0.00
   11    9    2     -1.95      0.00
  -11   10    2      0.65      0.00
  -10   10    2      3.07      0.00
   -9   10    2     -0.29      0.00
   -8   10    2     -3.44      0.00
   -7   10    2     -1.15      0.00
   -6   10    2      2.00      0.00
   -5   10    2      1.14      0.00
   -4   10    2    -13.22      0.00
   -3   10    2     -4.17      0.00
   -2   10    2     -2.90      0.00
   -1   10    2     -9.79      0.00
    0   10    2     -1.03      0.00
    1   10    2      8.89      0.00
    2   10    2     -9.22      0.00
    3   10    2     -3.36      0.00
    4   10    2     -1.39      0.00
    5   10    2     -2.08      0.00
    6   10    2      1.14      0.00
    7   10    2      2.58      0.00
    8   10    2      0.78      0.00
    9   10    2     -1.87      0.00
   10   10    2      3.87      0.00
  -10   11    2      0.81      0.00
   -9   11    2      0.16      0.00
   -8   11    2     -1.09      0.00
   -7   11    2      1.54      0.00
   -6   11    2     -1.86      0.00
   -5   11    2     -2.29      0.00
   -4   11    2     -0.74      0.00
   -3   11    2      1.20      0.00
   -2   11    2      5.06      0.00
   -1   11    2      0.69      0.00
    0   11    2     -0.73      0.00
    1   11    2     -0.28      0.00
    2   11    2      1.92      0.00
    3   11    2     -5.88      0.00
    4   11    2      2.41      0.00
    5   11    2     -0.30      0.00
    6   11    2      1.03      0.00
    7   11    2      0.58      0.00
    8   11    2      2.49      0.00
    9   11    2     -1.26      0.00
   10   11    2      0.51      0.00
  -10   12    2      2.23      0.00
   -9   12    2     -1.76      0.00
   -8   12    2     -3.12      0.00
   -7   12    2     -1.55      0.00
   -6   12    2     -1.88      0.00
   -5   12    2     -0.28      0.00
   -4   12    2     -5.53      0.00
   -3   12    2     -2.15      0.00
   -2   12    2     -1.75      0.00
   -1   12    2     -5.15      0.00
    0   12    2     -1.74      0.00
    1   12    2      6.29      0.00
    2   12    2     -1.06      0.00
    3   12    2     -3.76      0.00
    4   12    2     -2.78      0.00
    5   12    2      2.13      0.00
    6   12    2      2.31      0.00
    7   12    2      0.66      0.00
    8   12    2     -0.34      0.00
    9   12    2     -0.10      0.00
   10   12    2      2.12      0.00
   -9   13    2     -0.90      0.00
   -8   13    2     -0.13      0.00
   -7   13    2      1.93      0.00
   -6   13    2     -2.84      0.00
   -5   13    2      1.91      0.00
   -4   13    2      0.87      0.00
   -3   13    2     -1.70      0.00
   -2   13    2      3.90      0.00
   -1   13    2      8.28      0.00
    0   13    2     -2.04      0.00
    1   13    2     -0.76      0.00
    2   13    2      1.38      0.00
    3   13    2     -4.91      0.00
    4   13    2      2.32      0.00
    5   13    2      1.26      0.00
    6   13    2     -0.66      0.00
    7   13    2     -3.21      0.00
    8   13    2      1.05      0.00
    9   13    2     -1.47      0.00
   -9   14    2      1.51      0.00
   -8   14    2     -0.80      0.00
   -7   14    2      1.84      0.00
   -6   14    2     -1.81      0.00
   -5   14    2     -1.84      0.00
   -4   14    2      0.56      0.00
   -3   14    2      1.03      0.00
   -2   14    2     -1.11      0.00
   -1   14    2      1.25      0.00
    0   14    2      0.41      0.00
    1   14    2     -0.88      0.00
    2   14    2      4.90      0.00
    3   14    2     -0.05      0.00
    4   14    2     -0.68      0.00
    5   14    2      1.60      0.00
    6   14    2      2.16      0.00
    7   14    2     -0.18      0.00
    8   14    2      0.89      0.00
    9   14    2      0.33      0.00
   -8   15    2      1.79      0.00
   -7   15    2      2.08      0.00
   -6   15    2     -2.32      0.00
   -5   15    2      2.86      0.00
   -4   15    2      2.33      0.00
   -3   15    2      1.17      0.00
   -2   15    2     -0.88      0.00
   -1   15    2      4.94      0.00
    0   15    2      0.62      0.00
    1   15    2      2.14      0.00
    2   15    2      1.42      0.00
    3   15    2     -1.84      0.00
    4   15    2     -1.30      0.00
    5   15    2      1.90      0.00
    6   15    2      0.09      0.00
    7   15    2     -1.14      0.00
    8   15    2     -0.67      0.00
   -8   16    2     -1.78      0.00
   -7   16    2      0.74      0.00
   -6   16    2      0.54      0.00
   -5   16    2     -3.86      0.00
   -4   16    2      0.94      0.00
   -3   16    2      2.02      0.00
   -2   16    2      0.58      0.00
   -1   16    2      2.33      0.00
    0   16    2      2.46      0.00
    1   16    2     -2.65      0.00
    2   16    2      4.05      0.00
    3   16    2      3.09      0.00
    4   16    2      2.84      0.00
    5   16    2      0.57      0.00
    6   16    2      0.00      0.00
    7   16    2      0.25      0.00
   -7   17    2     -0.61      0.00
   -6   17    2     -0.61      0.00
   -5   17    2      0.40      0.00
   -4   17    2      0.16      0.00
   -3   17    2      3.85      0.00
   -2   17    2     -3.52      0.00
   -1   17    2      0.03      0.00
    0   17    2      1.10      0.00
    1   17    2      2.15      0.00
    2   17    2     -0.85      0.00
    3   17    2      1.00      0.00
    4   17    2     -2.39      0.00
    5   17    2     -0.58      0.00
    6   17    2     -1.53      0.00
    7   17    2      0.60      0.00
   -6   18    2      1.09      0.00
   -5   18    2      1.86      0.00
   -4   18    2     -1.93      0.00
   -3   18    2      1.17      0.00
   -2   18    2     -0.72      0.00
   -1   18    2      1.35      0.00
    0   18    2      0.75      0.00
    1   18    2      0.54      0.00
    2   18    2     -1.93      0.00
    3   18    2      3.31      0.00
    4   18    2      1.12      0.00
    5   18    2      0.08      0.00
    6   18    2     -0.68      0.00
   -5   19    2      0.07      0.00
   -4   19    2     -1.07      0.00
   -3   19    2      2.66      0.00
   -2   19    2     -0.05      0.00
   -1   19    2      0.96      0.00
    0   19    2      0.91      0.00
    1   19    2      3.59      0.00
    2   19    2     -2.48      0.00
    3   19    2      0.81      0.00
    4   19    2      0.10      0.00
    5   19    2     -1.47      0.00
   -3   20    2      1.15      0.00
   -2   20    2     -0.42      0.00
   -1   20    2      1.97      0.00
    0   20    2      0.28      0.00
    1   20    2      0.71      0.00
    2   20    2     -2.92      0.00
    3   20    2     -0.21      0.00
  -11    0    3     -2.38      0.00
   -9    0    3      0.34      0.00
   -7    0    3     -6.79      0.00
   -5    0    3     14.09      0.00
   -3    0    3     14.47      0.00
   -1    0    3     -1.74      0.00
    1    0    3     79.95      0.00
    3    0    3     -8.17      0.00
    5    0    3     15.04      0.00
    7    0    3      9.98      0.00
    9    0    3      0.97      0.00
   11    0    3      0.39      0.00
  -12    1    3     -1.63      0.00
  -11    1    3      0.12      0.00
  -10    1    3     -0.47      0.00
   -9    1    3     -1.45      0.00
   -8    1    3      4.58      0.00
   -7    1    3     -2.43      0.00
   -6    1    3     11.93      0.00
   -5    1    3     -0.92      0.00
   -4    1    3    -19.68      0.00
   -3    1    3     -7.33      0.00
   -2    1    3     30.59      0.00
   -1    1    3      4.90      0.00
    0    1    3     63.37      0.00
    1    1    3     -3.35      0.00
    2    1    3    -30.19      0.00
    3    1    3    -10.47      0.00
    4    1    3     12.86      0.00
    5    1    3      2.34      0.00
    6    1    3     -2.64      0.00
    7    1    3     -0.69      0.00
    8    1    3     -1.00      0.00
    9    1    3      0.22      0.00
   10    1    3     -3.06      0.00
   11    1    3     -0.72      0.00
   12    1    3     -4.30      0.00
  -12    2    3     -0.05      0.00
  -11    2    3     -1.36      0.00
  -10    2    3     -2.72      0.00
   -9    2    3      0.03      0.00
   -8    2    3      4.63      0.00
   -7    2    3     -6.45      0.00
   -6    2    3     -1.53      0.00
   -5    2    3      9.80      0.00
   -4    2    3      0.40      0.00
   -3    2    3      9.78      0.00
   -2    2    3     49.99      0.00
   -1    2    3      0.83      0.00
    0    2    3    -41.16      0.00
    1    2    3     55.21      0.00
    2    2    3    -10.00      0.00
    3    2    3     -7.40      0.00
    4    2    3     19.34      0.00
    5    2    3     12.67      0.00
    6    2    3     -5.71      0.00
    7    2    3      5.14      0.00
    8    2    3     -1.95      0.00
    9    2    3     -1.03      0.00
   10    2    3      1.15      0.00
   11    2    3      0.46      0.00
   12    2    3      3.91      0.00
  -12    3    3      0.07      0.00
  -11    3    3      1.38      0.00
  -10    3    3      0.10      0.00
   -9    3    3     -1.40      0.00
   -8    3    3      2.52      0.00
   -7    3    3     -2.65      0.00
   -6    3    3      3.64      0.00
   -5    3    3     -1.91      0.00
   -4    3    3      0.10      0.00
   -3    3    3    -11.68      0.00
   -2    3    3      8.88      0.00
   -1    3    3      9.45      0.00
    0    3    3     -4.90      0.00
    1    3    3    -14.01      0.00
    2    3    3     -1.36      0.00
    3    3    3    -15.65      0.00
    4    3    3      4.93      0.00
    5    3    3      1.69      0.00
    6    3    3     -6.28      0.00
    7    3    3     -1.65      0.00
    8    3    3      1.37      0.00
    9    3    3      0.05      0.00
   10    3    3     -1.30      0.00
   11    3    3      0.24      0.00
   12    3    3     -4.17      0.00
  -12    4    3     -0.49      0.00
  -11    4    3     -1.11      0.00
  -10    4    3     -0.69      0.00
   -9    4    3      0.86      0.00
   -8    4    3      4.19      0.00
   -7    4    3     -4.16      0.00
   -6    4    3      2.70      0.00
   -5    4    3      1.16      0.00
   -4    4    3      6.07      0.00
   -3    4    3      3.08      0.00
   -2    4    3     38.61      0.00
   -1    4    3     -3.06      0.00
    0    4    3    -23.03      0.00
    1    4    3     17.81      0.00
    2    4    3     -5.45      0.00
    3    4    3     -3.24      0.00
    4    4    3     14.40      0.00
    5    4    3      8.34      0.00
    6    4    3     -3.77      0.00
    7    4    3      0.64      0.00
    8    4    3     -1.88      0.00
    9    4    3      0.24      0.00
   10    4    3      1.20      0.00
   11    4    3      0.80      0.00
   12    4    3      2.50      0.00
  -12    5    3      3.23      0.00
  -11    5    3      0.80      0.00
  -10    5    3      0.02      0.00
   -9    5    3     -0.51      0.00
   -8    5    3      1.22      0.00
   -7    5    3     -1.80      0.00
   -6    5    3     -2.83      0.00
   -5    5    3     -4.61      0.00
   -4    5    3     10.48      0.00
   -3    5    3     -7.30      0.00
   -2    5    3     -3.96      0.00
   -1    5    3      1.79      0.00
    0    5    3    -35.56      0.00
    1    5    3    -19.39      0.00
    2    5    3     15.09      0.00
    3    5    3     -5.73      0.00
    4    5    3     -1.23      0.00
    5    5    3     -3.39      0.00
    6    5    3     -6.06      0.00
    7    5    3     -1.31      0.00
    8    5    3      5.51      0.00
    9    5    3     -1.70      0.00
   10    5    3      0.32      0.00
   11    5    3      0.04      0.00
  -12    6    3     -0.58      0.00
  -11    6    3     -3.81      0.00
  -10    6    3      1.27      0.00
   -9    6    3      1.57      0.00
   -8    6    3      0.10      0.00
   -7    6    3     -2.74      0.00
   -6    6    3      6.48      0.00
   -5    6    3     -4.56      0.00
   -4    6    3      6.58      0.00
   -3    6    3     -0.29      0.00
   -2    6    3      6.97      0.00
   -1    6    3    -16.25      0.00
    0    6    3      7.65      0.00
    1    6    3     -1.10      0.00
    2    6    3      3.97      0.00
    3    6    3     -2.15      0.00
    4    6    3     -3.88      0.00
    5    6    3      0.89      0.00
    6    6    3      1.19      0.00
    7    6    3     -2.91      0.00
    8    6    3     -1.82      0.00
    9    6    3      0.88      0.00
   10    6    3     -0.45      0.00
   11    6    3      0.98      0.00
  -11    7    3     -1.12      0.00
  -10    7    3     -0.30      0.00
   -9    7    3     -0.39      0.00
   -8    7    3     -1.47      0.00
   -7    7    3     -1.48      0.00
   -6    7    3     -3.23      0.00
   -5    7    3     -4.57      0.00
   -4    7    3     -1.87      0.00
   -3    7    3     -5.42      0.00
   -2    7    3     -3.11      0.00
   -1    7    3     -6.78      0.00
    0    7    3    -27.99      0.00
    1    7    3     -9.55      0.00
    2    7    3      2.39      0.00
    3    7    3      3.35      0.00
    4    7    3     -2.66      0.00
    5    7    3     -6.61      0.00
    6    7    3     -3.87      0.00
    7    7    3      0.88      0.00
    8    7    3      2.03      0.00
    9    7    3     -0.64      0.00
   10    7    3      0.84      0.00
   11    7    3     -2.40      0.00
  -11    8    3     -4.15      0.00
  -10    8    3      1.58      0.00
   -9    8    3      1.89      0.00
   -8    8    3     -1.00      0.00
   -7    8    3     -1.86      0.00
   -6    8    3      6.40      0.00
   -5    8    3     -5.67      0.00
   -4    8    3      4.98      0.00
   -3    8    3      1.58      0.00
   -2    8    3     -5.98      0.00
   -1    8    3    -23.19      0.00
    0    8    3     13.36      0.00
    1    8    3     -3.86      0.00
    2    8    3     11.34      0.00
    3    8    3     -6.76      0.00
    4    8    3     -6.58      0.00
    5    8    3     -7.01      0.00
    6    8    3      2.62      0.00
    7    8    3     -2.26      0.00
    8    8    3      0.28      0.00
    9    8    3     -1.89      0.00
   10    8    3     -0.38      0.00
   11    8    3     -1.34      0.00
  -11    9    3      0.65      0.00
  -10    9    3      0.86      0.00
   -9    9    3      0.21      0.00
   -8    9    3     -2.88      0.00
   -7    9    3     -0.89      0.00
   -6    9    3      0.80      0.00
   -5    9    3      0.67      0.00
   -4    9    3    -15.11      0.00
   -3    9    3     -6.20      0.00
   -2    9    3      2.47      0.00
   -1    9    3     -8.21      0.00
    0    9    3     -6.00      0.00
    1    9    3      6.25      0.00
    2    9    3     -7.74      0.00
    3    9    3      0.83      0.00
    4    9    3     -0.52      0.00
    5    9    3     -3.79      0.00
    6    9    3     -1.11      0.00
    7    9    3      4.31      0.00
    8    9    3     -0.46      0.00
    9    9    3     -0.82      0.00
   10    9    3      3.25      0.00
   11    9    3     -2.02      0.00
  -11   10    3      0.45      0.00
  -10   10    3      0.86      0.00
   -9   10    3      1.09      0.00
   -8   10    3      0.34      0.00
   -7   10    3      0.58      0.00
   -6   10    3      1.12      0.00
   -5   10    3     -3.46      0.00
   -4   10    3      0.94      0.00
   -3   10    3      0.25      0.00
   -2   10    3      2.71      0.00
   -1   10    3    -11.09      0.00
    0   10    3      2.16      0.00
    1   10    3     -1.94      0.00
    2   10    3      5.76      0.00
    3   10    3     -8.58      0.00
    4   10    3     -0.28      0.00
    5   10    3     -2.16      0.00
    6   10    3      1.12      0.00
    7   10    3      1.73      0.00
    8   10    3      1.52      0.00
    9   10    3     -1.54      0.00
   10   10    3      0.09      0.00
  -10   11    3      2.89      0.00
   -9   11    3     -2.00      0.00
   -8   11    3     -2.90      0.00
   -7   11    3     -2.04      0.00
   -6   11    3     -1.35      0.00
   -5   11    3      0.52      0.00
   -4   11    3     -9.59      0.00
   -3   11    3     -5.03      0.00
   -2   11    3      3.57      0.00
   -1   11    3     -5.59      0.00
    0   11    3      1.82      0.00
    1   11    3      9.30      0.00
    2   11    3     -2.57      0.00
    3   11    3     -4.21      0.00
    4   11    3     -1.27      0.00
    5   11    3      1.72      0.00
    6   11    3      1.23      0.00
    7   11    3      2.31      0.00
    8   11    3     -0.20      0.00
    9   11    3     -0.62      0.00
   10   11    3      3.61      0.00
  -10   12    3      0.23      0.00
   -9   12    3     -0.56      0.00
   -8   12    3     -0.32      0.00
   -7   12    3      1.61      0.00
   -6   12    3     -2.50      0.00
   -5   12    3     -0.28      0.00
   -4   12    3     -0.06      0.00
   -3   12    3     -3.36      0.00
   -2   12    3      4.93      0.00
   -1   12    3      4.00      0.00
    0   12    3     -4.48      0.00
    1   12    3     -5.24      0.00
    2   12    3      2.41      0.00
    3   12    3     -6.61      0.00
    4   12    3      2.04      0.00
    5   12    3      1.44      0.00
    6   12    3     -0.34      0.00
    7   12    3     -1.50      0.00
    8   12    3      1.01      0.00
    9   12    3     -1.10      0.00
   10   12    3     -0.44      0.00
   -9   13    3     -0.41      0.00
   -8   13    3     -1.63      0.00
   -7   13    3      0.79      0.00
   -6   13    3     -2.95      0.00
   -5   13    3     -0.93      0.00
   -4   13    3     -0.70      0.00
   -3   13    3      0.06      0.00
   -2   13    3      0.20      0.00
   -1   13    3     -1.08      0.00
    0   13    3      2.11      0.00
    1   13    3      2.51      0.00
    2   13    3      4.57      0.00
    3   13    3     -1.07      0.00
    4   13    3     -2.90      0.00
    5   13    3      2.42      0.00
    6   13    3      2.72      0.00
    7   13    3     -0.26      0.00
    8   13    3     -0.86      0.00
    9   13    3      1.18      0.00
   -9   14    3      0.28      0.00
   -8   14    3      1.15      0.00
   -7   14    3      3.26      0.00
   -6   14    3     -2.01      0.00
   -5   14    3      1.47      0.00
   -4   14    3      2.01      0.00
   -3   14    3     -1.73      0.00
   -2   14    3      1.75      0.00
   -1   14    3      6.17      0.00
    0   14    3     -0.23      0.00
    1   14    3     -2.29      0.00
    2   14    3      2.08      0.00
    3   14    3     -3.44      0.00
    4   14    3      1.02      0.00
    5   14    3      0.81      0.00
    6   14    3     -0.48      0.00
    7   14    3     -2.42      0.00
    8   14    3     -0.01      0.00
    9   14    3     -0.84      0.00
   -8   15    3     -1.21      0.00
   -7   15    3      2.97      0.00
   -6   15    3     -0.23      0.00
   -5   15    3     -4.18      0.00
   -4   15    3      3.42      0.00
   -3   15    3      3.98      0.00
   -2   15    3      0.31      0.00
   -1   15    3      1.48      0.00
    0   15    3      3.54      0.00
    1   15    3     -2.35      0.00
    2   15    3      6.35      0.00
    3   15    3      1.68      0.00
    4   15    3      1.30      0.00
    5   15    3      0.53      0.00
    6   15    3      1.55      0.00
    7   15    3     -0.27      0.00
    8   15    3      1.06      0.00
   -8   16    3      0.73      0.00
   -7   16    3      0.65      0.00
   -6   16    3     -1.42      0.00
   -5   16    3      1.19      0.00
   -4   16    3     -0.32      0.00
   -3   16    3      1.63      0.00
   -2   16    3     -3.13      0.00
   -1   16    3      1.32      0.00
    0   16    3      2.11      0.00
    1   16    3      1.97      0.00
    2   16    3     -0.54      0.00
    3   16    3      0.01      0.00
    4   16    3     -1.41      0.00
    5   16    3      1.18      0.00
    6   16    3      0.24      0.00
    7   16    3      0.53      0.00
   -7   17    3     -0.14      0.00
   -6   17    3      1.08      0.00
   -5   17    3     -1.47      0.00
   -4   17    3      0.08      0.00
   -3   17    3      3.22      0.00
   -2   17    3      0.51      0.00
   -1   17    3      0.95      0.00
    0   17    3      1.60      0.00
    1   17    3     -1.31      0.00
    2   17    3      1.05      0.00
    3   17    3      3.10      0.00
    4   17    3      3.07      0.00
    5   17    3     -0.42      0.00
    6   17    3     -1.32      0.00
    7   17    3     -0.32      0.00
   -6   18    3     -0.98      0.00
   -5   18    3      0.64      0.00
   -4   18    3     -2.41      0.00
   -3   18    3      2.00      0.00
   -2   18    3     -2.14      0.00
   -1   18    3     -0.12      0.00
    0   18    3      1.84      0.00
    1   18    3      3.11      0.00
    2   18    3     -2.18      0.00
    3   18    3     -0.14      0.00
    4   18    3     -0.19      0.00
    5   18    3     -0.89      0.00
    6   18    3     -1.65      0.00
   -5   19    3      3.82      0.00
   -4   19    3     -0.63      0.00
   -3   19    3      1.92      0.00
   -2   19    3      0.05      0.00
   -1   19    3      1.34      0.00
    0   19    3     -0.55      0.00
    1   19    3      1.79      0.00
    2   19    3     -2.20      0.00
    3   19    3      1.24      0.00
    4   19    3      1.10      0.00
    5   19    3      0.63      0.00
   -3   20    3      0.90      0.00
   -2   20    3      0.89      0.00
   -1   20    3      0.62      0.00
    0   20    3      0.85      0.00
    1   20    3      3.33      0.00
    2   20    3     -1.92      0.00
    3   20    3     -0.66      0.00
  -10    0    4     -0.73      0.00
   -8    0    4      5.39      0.00
   -6    0    4      5.93      0.00
   -4    0    4    -23.20      0.00
   -2    0    4     31.94      0.00
    0    0    4     18.24      0.00
    2    0    4    -24.24      0.00
    4    0    4     13.32      0.00
    6    0    4      0.96      0.00
    8    0    4      0.56      0.00
   10    0    4     -3.14      0.00
  -12    1    4     -1.15      0.00
  -11    1    4     -0.82      0.00
  -10    1    4     -2.67      0.00
   -9    1    4     -0.56      0.00
   -8    1    4      1.89      0.00
   -7    1    4     -5.57      0.00
   -6    1    4     -1.90      0.00
   -5    1    4     19.48      0.00
   -4    1    4      3.30      0.00
   -3    1    4      8.88      0.00
   -2    1    4     24.79      0.00
   -1    1    4     34.33      0.00
    0    1    4    -32.07      0.00
    1    1    4     71.32      0.00
    2    1    4     -4.05      0.00
    3    1    4    -12.56      0.00
    4    1    4      7.52      0.00
    5    1    4     14.57      0.00
    6    1    4     -4.19      0.00
    7    1    4      4.23      0.00
    8    1    4     -0.52      0.00
    9    1    4      1.62      0.00
   10    1    4      0.63      0.00
   11    1    4      0.58      0.00
   12    1    4      2.13      0.00
  -12    2    4     -0.78      0.00
  -11    2    4      1.76      0.00
  -10    2    4      0.10      0.00
   -9    2    4     -1.57      0.00
   -8    2    4      4.15      0.00
   -7    2    4     -2.79      0.00
   -6    2    4      2.35      0.00
   -5    2    4     -4.26      0.00
   -4    2    4    -10.56      0.00
   -3    2    4    -13.86      0.00
   -2    2    4     14.52      0.00
   -1    2    4     17.17      0.00
    0    2    4     -6.18      0.00
    1    2    4     -7.66      0.00
    2    2    4     -8.41      0.00
    3    2    4     -9.67      0.00
    4    2    4      5.43      0.00
    5    2    4      5.09      0.00
    6    2    4     -0.55      0.00
    7    2    4     -1.92      0.00
    8    2    4      0.08      0.00
    9    2    4      0.57      0.00
   10    2    4     -2.31      0.00
   11    2    4     -0.36      0.00
   12    2    4     -4.16      0.00
  -12    3    4     -1.14      0.00
  -11    3    4      0.29      0.00
  -10    3    4     -2.23      0.00
   -9    3    4      0.12      0.00
   -8    3    4      4.79      0.00
   -7    3    4     -4.01      0.00
   -6    3    4     -0.53      0.00
   -5    3    4      9.88      0.00
   -4    3    4     11.31      0.00
   -3    3    4      4.96      0.00
   -2    3    4     40.55      0.00
   -1    3    4     22.16      0.00
    0    3    4    -48.72      0.00
    1    3    4     30.22      0.00
    2    3    4     -7.64      0.00
    3    3    4     -4.67      0.00
    4    3    4     12.90      0.00
    5    3    4     10.29      0.00
    6    3    4     -6.63      0.00
    7    3    4     -0.81      0.00
    8    3    4     -0.92      0.00
    9    3    4      0.97      0.00
   10    3    4      1.27      0.00
   11    3    4      0.43      0.00
   12    3    4      3.25      0.00
  -12    4    4      1.29      0.00
  -11    4    4      2.33      0.00
  -10    4    4      0.04      0.00
   -9    4    4     -1.44      0.00
   -8    4    4      1.82      0.00
   -7    4    4     -1.42      0.00
   -6    4    4     -2.39      0.00
   -5    4    4     -5.24      0.00
   -4    4    4      7.19      0.00
   -3    4    4    -12.67      0.00
   -2    4    4     -8.47      0.00
   -1    4    4     14.07      0.00
    0    4    4    -31.58      0.00
    1    4    4    -13.05      0.00
    2    4    4     17.26      0.00
    3    4    4     -2.91      0.00
    4    4    4     -6.48      0.00
    5    4    4      2.24      0.00
    6    4    4     -2.03      0.00
    7    4    4     -1.89      0.00
    8    4    4      3.46      0.00
    9    4    4     -0.93      0.00
   10    4    4      0.30      0.00
   11    4    4      1.29      0.00
   12    4    4     -3.11      0.00
  -12    5    4      0.11      0.00
  -11    5    4     -0.22      0.00
  -10    5    4      1.07      0.00
   -9    5    4      1.68      0.00
   -8    5    4      3.52      0.00
   -7    5    4     -1.75      0.00
   -6    5    4      4.36      0.00
   -5    5    4     -0.42      0.00
   -4    5    4      9.96      0.00
   -3    5    4     -1.14      0.00
   -2    5    4     19.53      0.00
   -1    5    4     -0.31      0.00
    0    5    4    -13.40      0.00
    1    5    4      1.12      0.00
    2    5    4     -7.33      0.00
    3    5    4      1.09      0.00
    4    5    4      0.14      0.00
    5    5    4      4.89      0.00
    6    5    4     -2.48      0.00
    7    5    4     -3.05      0.00
    8    5    4     -1.91      0.00
    9    5    4      3.05      0.00
   10    5    4      0.43      0.00
   11    5    4      0.52      0.00
  -12    6    4      2.66      0.00
  -11    6    4      0.06      0.00
  -10    6    4     -1.80      0.00
   -9    6    4     -1.97      0.00
   -8    6    4     -0.59      0.00
   -7    6    4     -2.08      0.00
   -6    6    4     -4.70      0.00
   -5    6    4     -5.94      0.00
   -4    6    4      6.83      0.00
   -3    6    4     -7.39      0.00
   -2    6    4     -7.80      0.00
   -1    6    4     -0.83      0.00
    0    6    4    -33.03      0.00
    1    6    4     -9.77      0.00
    2    6    4     16.80      0.00
    3    6    4      5.35      0.00
    4    6    4     -9.32      0.00
    5    6    4     -3.38      0.00
    6    6    4     -2.51      0.00
    7    6    4      0.08      0.00
    8    6    4      4.38      0.00
    9    6    4     -3.03      0.00
   10    6    4      0.96      0.00
   11    6    4     -1.18      0.00
  -11    7    4     -1.83      0.00
  -10    7    4      2.03      0.00
   -9    7    4      1.77      0.00
   -8    7    4     -0.11      0.00
   -7    7    4     -1.48      0.00
   -6    7    4      7.63      0.00
   -5    7    4     -3.72      0.00
   -4    7    4      3.82      0.00
   -3    7    4     -4.98      0.00
   -2    7    4     -2.53      0.00
   -1    7    4    -19.03      0.00
    0    7    4     11.03      0.00
    1    7    4     -6.75      0.00
    2    7    4      0.55      0.00
    3    7    4     -3.00      0.00
    4    7    4     -8.56      0.00
    5    7    4     -3.47      0.00
    6    7    4      0.88      0.00
    7    7    4     -4.24      0.00
    8    7    4     -1.05      0.00
    9    7    4     -0.20      0.00
   10    7    4      0.08      0.00
   11    7    4     -0.17      0.00
  -11    8    4      0.22      0.00
  -10    8    4     -2.48      0.00
   -9    8    4     -0.26      0.00
   -8    8    4     -1.67      0.00
   -7    8    4     -1.34      0.00
   -6    8    4     -2.08      0.00
   -5    8    4     -1.20      0.00
   -4    8    4     -9.21      0.00
   -3    8    4     -5.74      0.00
   -2    8    4      4.67      0.00
   -1    8    4     -5.62      0.00
    0    8    4    -16.38      0.00
    1    8    4      3.08      0.00
    2    8    4     -0.32      0.00
    3    8    4      6.04      0.00
    4    8    4     -3.63      0.00
    5    8    4     -4.04      0.00
    6    8    4     -2.44      0.00
    7    8    4      4.29      0.00
    8    8    4     -0.63      0.00
    9    8    4     -1.72      0.00
   10    8    4      1.40      0.00
   11    8    4     -2.73      0.00
  -11    9    4     -0.42      0.00
  -10    9    4      1.20      0.00
   -9    9    4      0.96      0.00
   -8    9    4      0.70      0.00
   -7    9    4     -0.63      0.00
   -6    9    4      4.72      0.00
   -5    9    4     -2.93      0.00
   -4    9    4      1.88      0.00
   -3    9    4     -4.44      0.00
   -2    9    4     -2.07      0.00
   -1    9    4    -19.98      0.00
    0    9    4      6.86      0.00
    1    9    4     -3.71      0.00
    2    9    4      5.64      0.00
    3    9    4     -8.69      0.00
    4    9    4     -3.53      0.00
    5    9    4     -4.26      0.00
    6    9    4      0.35      0.00
    7    9    4      0.46      0.00
    8    9    4      1.13      0.00
    9    9    4     -2.35      0.00
   10    9    4      0.15      0.00
   11    9    4     -0.89      0.00
  -11   10    4      1.55      0.00
  -10   10    4      0.65      0.00
   -9   10    4     -0.42      0.00
   -8   10    4     -1.33      0.00
   -7   10    4     -1.46      0.00
   -6   10    4     -1.28      0.00
   -5   10    4      2.50      0.00
   -4   10    4    -12.51      0.00
   -3   10    4     -6.89      0.00
   -2   10    4      9.48      0.00
   -1   10    4     -2.76      0.00
    0   10    4      0.64      0.00
    1   10    4     10.66      0.00
    2   10    4     -4.08      0.00
    3   10    4     -1.87      0.00
    4   10    4     -0.04      0.00
    5   10    4      1.00      0.00
    6   10    4     -0.87      0.00
    7   10    4      4.92      0.00
    8   10    4     -0.97      0.00
    9   10    4     -1.00      0.00
   10   10    4      3.79      0.00
  -10   11    4     -0.03      0.00
   -9   11    4     -0.31      0.00
   -8   11    4      0.59      0.00
   -7   11    4      0.73      0.00
   -6   11    4     -1.50      0.00
   -5   11    4     -1.70      0.00
   -4   11    4     -0.40      0.00
   -3   11    4     -5.76      0.00
   -2   11    4      3.98      0.00
   -1   11    4     -4.08      0.00
    0   11    4     -5.36      0.00
    1   11    4     -5.76      0.00
    2   11    4      4.17      0.00
    3   11    4     -7.92      0.00
    4   11    4      0.19      0.00
    5   11    4      1.94      0.00
    6   11    4     -0.13      0.00
    7   11    4      1.43      0.00
    8   11    4      0.74      0.00
    9   11    4     -1.00      0.00
   10   11    4     -1.26      0.00
  -10   12    4      1.80      0.00
   -9   12    4     -1.64      0.00
   -8   12    4     -1.26      0.00
   -7   12    4     -0.81      0.00
   -6   12    4     -3.38      0.00
   -5   12    4      0.59      0.00
   -4   12    4     -2.95      0.00
   -3   12    4     -2.53      0.00
   -2   12    4      4.19      0.00
   -1   12    4     -0.88      0.00
    0   12    4      3.89      0.00
    1   12    4      5.40      0.00
    2   12    4      2.17      0.00
    3   12    4     -2.23      0.00
    4   12    4     -2.77      0.00
    5   12    4      2.86      0.00
    6   12    4      1.38      0.00
    7   12    4      0.71      0.00
    8   12    4     -1.81      0.00
    9   12    4      0.98      0.00
   -9   13    4     -0.40      0.00
   -8   13    4      0.47      0.00
   -7   13    4      2.47      0.00
   -6   13    4     -2.03      0.00
   -5   13    4     -0.65      0.00
   -4   13    4      1.03      0.00
   -3   13    4     -4.10      0.00
   -2   13    4      2.83      0.00
   -1   13    4      4.88      0.00
    0   13    4     -3.60      0.00
    1   13    4     -7.06      0.00
    2   13    4      3.48      0.00
    3   13    4     -4.31      0.00
    4   13    4      1.72      0.00
    5   13    4      0.66      0.00
    6   13    4     -0.72      0.00
    7   13    4     -1.71      0.00
    8   13    4      0.09      0.00
    9   13    4     -0.52      0.00
   -9   14    4      0.71      0.00
   -8   14    4     -0.03      0.00
   -7   14    4      2.82      0.00
   -6   14    4     -0.90      0.00
   -5   14    4     -1.82      0.00
   -4   14    4      4.31      0.00
   -3   14    4      3.95      0.00
   -2   14    4      0.15      0.00
   -1   14    4     -0.20      0.00
    0   14    4      5.40      0.00
    1   14    4      0.27      0.00
    2   14    4      6.32      0.00
    3   14    4      1.05      0.00
    4   14    4     -1.95      0.00
    5   14    4      1.06      0.00
    6   14    4      2.73      0.00
    7   14    4      0.01      0.00
    8   14    4     -0.62      0.00
   -8   15    4      0.95      0.00
   -7   15    4      2.32      0.00
   -6   15    4     -0.61      0.00
   -5   15    4      0.16      0.00
   -4   15    4     -0.20      0.00
   -3   15    4     -1.02      0.00
   -2   15    4      0.19      0.00
   -1   15    4      2.77      0.00
    0   15    4      2.45      0.00
    1   15    4     -0.65      0.00
    2   15    4     -0.21      0.00
    3   15    4     -0.43      0.00
    4   15    4      0.84      0.00
    5   15    4      1.32      0.00
    6   15    4      0.28      0.00
    7   15    4     -0.40      0.00
    8   15    4     -0.02      0.00
   -8   16    4     -2.13      0.00
   -7   16    4      1.62      0.00
   -6   16    4      0.70      0.00
   -5   16    4     -3.62      0.00
   -4   16    4      3.94      0.00
   -3   16    4      4.70      0.00
   -2   16    4      0.81      0.00
   -1   16    4     -0.18      0.00
    0   16    4      3.56      0.00
    1   16    4     -2.03      0.00
    2   16    4      3.49      0.00
    3   16    4      1.56      0.00
    4   16    4      2.55      0.00
    5   16    4     -0.76      0.00
    6   16    4      0.19      0.00
    7   16    4     -0.83      0.00
   -7   17    4     -1.53      0.00
   -6   17    4     -0.95      0.00
   -5   17    4      1.36      0.00
   -4   17    4     -3.46      0.00
   -3   17    4      0.49      0.00
   -2   17    4     -2.57      0.00
   -1   17    4     -0.79      0.00
    0   17    4      2.38      0.00
    1   17    4      2.62      0.00
    2   17    4     -2.04      0.00
    3   17    4      0.48      0.00
    4   17    4      0.28      0.00
    5   17    4      1.10      0.00
    6   17    4     -0.17      0.00
   -6   18    4      0.61      0.00
   -5   18    4      2.21      0.00
   -4   18    4     -0.02      0.00
   -3   18    4      2.27      0.00
   -2   18    4      0.57      0.00
   -1   18    4      0.08      0.00
    0   18    4      0.47      0.00
    1   18    4      0.70      0.00
    2   18    4     -0.76      0.00
    3   18    4      1.35      0.00
    4   18    4      2.11      0.00
    5   18    4     -0.03      0.00
    6   18    4     -1.66      0.00
   -5   19    4      1.19      0.00
   -4   19    4     -2.65      0.00
   -3   19    4      0.39      0.00
   -2   19    4      0.58      0.00
   -1   19    4     -0.12      0.00
    0   19    4      1.93      0.00
    1   19    4      3.04      0.00
    2   19    4     -1.40      0.00
    3   19    4     -1.47      0.00
    4   19    4      1.14      0.00
   -3   20    4      1.15      0.00
   -2   20    4      0.69      0.00
   -1   20    4      0.44      0.00
    0   20    4     -0.35      0.00
    1   20    4      2.32      0.00
    2   20    4     -0.47      0.00
    3   20    4     -0.04      0.00
  -11    0    5      0.36      0.00
   -9    0    5     -0.86      0.00
   -7    0    5     -2.81      0.00
   -5    0    5     22.76      0.00
   -3    0    5      4.58      0.00
   -1    0    5     61.72      0.00
    1    0    5     59.27      0.00
    3    0    5    -16.26      0.00
    5    0    5     11.59      0.00
    7    0    5      1.58      0.00
    9    0    5      2.68      0.00
   11    0    5     -0.37      0.00
  -11    1    5      1.18      0.00
  -10    1    5     -0.22      0.00
   -9    1    5     -1.00      0.00
   -8    1    5      4.08      0.00
   -7    1    5     -1.16      0.00
   -6    1    5     -1.97      0.00
   -5    1    5     -3.73      0.00
   -4    1    5    -13.84      0.00
   -3    1    5     -7.43      0.00
   -2    1    5     19.37      0.00
   -1    1    5     14.79      0.00
    0    1    5    -14.25      0.00
    1    1    5     -4.93      0.00
    2    1    5     -8.45      0.00
    3    1    5     -3.02      0.00
    4    1    5     10.41      0.00
    5    1    5      3.43      0.00
    6    1    5      4.63      0.00
    7    1    5     -1.79      0.00
    8    1    5      0.11      0.00
    9    1    5      0.44      0.00
   10    1    5     -0.74      0.00
   11    1    5     -0.46      0.00
   12    1    5     -1.35      0.00
  -12    2    5     -2.45      0.00
  -11    2    5      0.95      0.00
  -10    2    5     -3.46      0.00
   -9    2    5     -0.23      0.00
   -8    2    5      2.27      0.00
   -7    2    5     -1.92      0.00
   -6    2    5     -3.18      0.00
   -5    2    5     16.99      0.00
   -4    2    5     11.42      0.00
   -3    2    5      4.54      0.00
   -2    2    5     24.17      0.00
   -1    2    5     49.99      0.00
    0    2    5    -53.51      0.00
    1    2    5     35.59      0.00
    2    2    5     -3.92      0.00
    3    2    5     -8.19      0.00
    4    2    5      6.19      0.00
    5    2    5      9.22      0.00
    6    2    5     -6.44      0.00
    7    2    5     -1.32      0.00
    8    2    5      0.48      0.00
    9    2    5      1.67      0.00
   10    2    5      0.93      0.00
   11    2    5      0.13      0.00
   12    2    5      1.75      0.00
  -12    3    5     -0.99      0.00
  -11    3    5      2.66      0.00
  -10    3    5      0.55      0.00
   -9    3    5     -1.78      0.00
   -8    3    5      2.49      0.00
   -7    3    5     -0.04      0.00
   -6    3    5     -4.17      0.00
   -5    3    5     -6.41      0.00
   -4    3    5      2.43      0.00
   -3    3    5    -11.90      0.00
   -2    3    5     -8.63      0.00
   -1    3    5     27.24      0.00
    0    3    5    -23.33      0.00
    1    3    5     -9.22      0.00
    2    3    5     11.75      0.00
    3    3    5      0.70      0.00
    4    3    5     -4.89      0.00
    5    3    5      5.49      0.00
    6    3    5      3.46      0.00
    7    3    5     -3.44      0.00
    8    3    5     -0.51      0.00
    9    3    5      0.65      0.00
   10    3    5     -0.09      0.00
   11    3    5      1.51      0.00
  -12    4    5     -0.34      0.00
  -11    4    5      2.22      0.00
  -10    4    5      0.64      0.00
   -9    4    5      1.51      0.00
   -8    4    5      4.48      0.00
   -7    4    5     -0.44      0.00
   -6    4    5      0.43      0.00
   -5    4    5      4.76      0.00
   -4    4    5     14.39      0.00
   -3    4    5      1.99      0.00
   -2    4    5     20.09      0.00
   -1    4    5     20.52      0.00
    0    4    5    -40.57      0.00
    1    4    5      2.12      0.00
    2    4    5    -10.18      0.00
    3    4    5      4.06      0.00
    4    4    5      2.43      0.00
    5    4    5      4.32      0.00
    6    4    5     -5.19      0.00
    7    4    5     -3.13      0.00
    8    4    5     -0.38      0.00
    9    4    5      3.39      0.00
   10    4    5      0.12      0.00
   11    4    5      0.30      0.00
  -12    5    5      0.24      0.00
  -11    5    5      1.68      0.00
  -10    5    5     -1.55      0.00
   -9    5    5     -3.05      0.00
   -8    5    5     -0.32      0.00
   -7    5    5      0.06      0.00
   -6    5    5     -4.84      0.00
   -5    5    5     -4.88      0.00
   -4    5    5     10.59      0.00
   -3    5    5     -7.23      0.00
   -2    5    5    -19.27      0.00
   -1    5    5     12.57      0.00
    0    5    5    -25.99      0.00
    1    5    5     -6.16      0.00
    2    5    5     23.38      0.00
    3    5    5      7.76      0.00
    4    5    5    -14.66      0.00
    5    5    5      0.86      0.00
    6    5    5      1.22      0.00
    7    5    5     -1.67      0.00
    8    5    5      3.37      0.00
    9    5    5     -2.74      0.00
   10    5    5      1.91      0.00
   11    5    5      1.50      0.00
  -12    6    5      0.71      0.00
  -11    6    5      2.67      0.00
  -10    6    5      2.33      0.00
   -9    6    5      1.63      0.00
   -8    6    5      1.81      0.00
   -7    6    5      0.13      0.00
   -6    6    5      4.77      0.00
   -5    6    5     -2.51      0.00
   -4    6    5      3.27      0.00
   -3    6    5     -6.03      0.00
   -2    6    5      2.45      0.00
   -1    6    5     -6.94      0.00
    0    6    5     -3.61      0.00
    1    6    5    -10.32      0.00
    2    6    5    -11.35      0.00
    3    6    5      4.67      0.00
    4    6    5     -7.63      0.00
    5    6    5     -1.11      0.00
    6    6    5     -1.00      0.00
    7    6    5     -4.01      0.00
    8    6    5     -1.55      0.00
    9    6    5      2.10      0.00
   10    6    5     -0.51      0.00
   11    6    5      0.36      0.00
  -11    7    5      0.34      0.00
  -10    7    5     -4.26      0.00
   -9    7    5     -2.07      0.00
   -8    7    5     -1.17      0.00
   -7    7    5     -1.01      0.00
   -6    7    5     -4.04      0.00
   -5    7    5     -2.16      0.00
   -4    7    5      1.41      0.00
   -3    7    5     -3.36      0.00
   -2    7    5     -2.69      0.00
   -1    7    5     -0.95      0.00
    0    7    5    -21.88      0.00
    1    7    5      1.83      0.00
    2    7    5     10.04      0.00
    3    7    5      9.44      0.00
    4    7    5    -10.15      0.00
    5    7    5     -3.20      0.00
    6    7    5     -1.74      0.00
    7    7    5      2.06      0.00
    8    7    5      1.29      0.00
    9    7    5     -3.89      0.00
   10    7    5      0.65      0.00
   11    7    5     -1.79      0.00
  -11    8    5      1.74      0.00
  -10    8    5      1.35      0.00
   -9    8    5      0.05      0.00
   -8    8    5      0.34      0.00
   -7    8    5     -0.79      0.00
   -6    8    5      5.94      0.00
   -5    8    5     -2.35      0.00
   -4    8    5     -0.46      0.00
   -3    8    5     -9.90      0.00
   -2    8    5     -6.56      0.00
   -1    8    5    -19.89      0.00
    0    8    5      8.83      0.00
    1    8    5     -7.53      0.00
    2    8    5     -1.80      0.00
    3    8    5     -3.92      0.00
    4    8    5     -6.31      0.00
    5    8    5     -4.68      0.00
    6    8    5      0.11      0.00
    7    8    5     -1.74      0.00
    8    8    5      0.79      0.00
    9    8    5     -2.50      0.00
   10    8    5      0.53      0.00
   11    8    5     -0.27      0.00
  -11    9    5      1.46      0.00
  -10    9    5     -3.07      0.00
   -9    9    5      0.64      0.00
   -8    9    5      0.33      0.00
   -7    9    5     -0.19      0.00
   -6    9    5     -2.25      0.00
   -5    9    5      3.48      0.00
   -4    9    5    -10.24      0.00
   -3    9    5     -5.17      0.00
   -2    9    5     11.57      0.00
   -1    9    5      0.77      0.00
    0    9    5     -6.11      0.00
    1    9    5     10.46      0.00
    2    9    5     -2.83      0.00
    3    9    5      2.76      0.00
    4    9    5     -1.58      0.00
    5    9    5      0.33      0.00
    6    9    5     -2.58      0.00
    7    9    5      5.47      0.00
    8    9    5     -1.23      0.00
    9    9    5     -2.09      0.00
   10    9    5      1.59      0.00
  -11   10    5      1.12      0.00
  -10   10    5     -0.01      0.00
   -9   10    5     -0.74      0.00
   -8   10    5      1.17      0.00
   -7   10    5     -0.07      0.00
   -6   10    5      0.08      0.00
   -5   10    5     -2.19      0.00
   -4   10    5      0.26      0.00
   -3   10    5     -9.27      0.00
   -2   10    5     -0.05      0.00
   -1   10    5    -11.76      0.00
    0   10    5     -2.03      0.00
    1   10    5     -4.56      0.00
    2   10    5      4.48      0.00
    3   10    5     -7.71      0.00
    4   10    5     -1.95      0.00
    5   10    5      0.86      0.00
    6   10    5     -0.40      0.00
    7   10    5      2.44      0.00
    8   10    5      1.84      0.00
    9   10    5     -1.83      0.00
   10   10    5     -1.11      0.00
  -10   11    5      0.25      0.00
   -9   11    5     -0.53      0.00
   -8   11    5      0.18      0.00
   -7   11    5     -0.85      0.00
   -6   11    5     -3.47      0.00
   -5   11    5      3.09      0.00
   -4   11    5     -5.40      0.00
   -3   11    5     -5.17      0.00
   -2   11    5      8.74      0.00
   -1   11    5      2.83      0.00
    0   11    5      2.53      0.00
    1   11    5      7.03      0.00
    2   11    5     -1.52      0.00
    3   11    5     -2.84      0.00
    4   11    5     -1.29      0.00
    5   11    5      3.47      0.00
    6   11    5     -0.86      0.00
    7   11    5      2.53      0.00
    8   11    5     -1.54      0.00
    9   11    5     -0.18      0.00
   10   11    5      2.31      0.00
  -10   12    5     -1.42      0.00
   -9   12    5     -0.84      0.00
   -8   12    5      0.21      0.00
   -7   12    5      1.05      0.00
   -6   12    5     -3.10      0.00
   -5   12    5     -2.36      0.00
   -4   12    5      0.48      0.00
   -3   12    5     -5.88      0.00
   -2   12    5      1.56      0.00
   -1   12    5      1.45      0.00
    0   12    5     -7.14      0.00
    1   12    5     -7.88      0.00
    2   12    5      5.76      0.00
    3   12    5     -4.55      0.00
    4   12    5      0.23      0.00
    5   12    5      2.12      0.00
    6   12    5     -0.49      0.00
    7   12    5      1.03      0.00
    8   12    5      0.30      0.00
    9   12    5      0.04      0.00
   -9   13    5     -0.83      0.00
   -8   13    5      0.78      0.00
   -7   13    5      1.24      0.00
   -6   13    5     -1.37      0.00
   -5   13    5      1.02      0.00
   -4   13    5      2.83      0.00
   -3   13    5      1.79      0.00
   -2   13    5      1.16      0.00
   -1   13    5      0.28      0.00
    0   13    5      6.05      0.00
    1   13    5      1.90      0.00
    2   13    5      3.55      0.00
    3   13    5      0.33      0.00
    4   13    5     -3.45      0.00
    5   13    5      1.81      0.00
    6   13    5      1.78      0.00
    7   13    5      0.44      0.00
    8   13    5     -2.52      0.00
    9   13    5      0.86      0.00
   -9   14    5     -0.33      0.00
   -8   14    5      0.95      0.00
   -7   14    5      2.42      0.00
   -6   14    5     -0.84      0.00
   -5   14    5     -1.71      0.00
   -4   14    5      0.58      0.00
   -3   14    5     -1.79      0.00
   -2   14    5      2.51      0.00
   -1   14    5      3.31      0.00
    0   14    5      0.30      0.00
    1   14    5     -4.39      0.00
    2   14    5      1.69      0.00
    3   14    5     -0.81      0.00
    4   14    5      2.23      0.00
    5   14    5      0.49      0.00
    6   14    5     -0.51      0.00
    7   14    5     -0.33      0.00
    8   14    5      0.07      0.00
   -8   15    5      0.34      0.00
   -7   15    5      2.04      0.00
   -6   15    5      0.75      0.00
   -5   15    5     -1.76      0.00
   -4   15    5      6.35      0.00
   -3   15    5      4.85      0.00
   -2   15    5     -0.23      0.00
   -1   15    5     -1.41      0.00
    0   15    5      5.68      0.00
    1   15    5     -0.07      0.00
    2   15    5      4.17      0.00
    3   15    5      0.90      0.00
    4   15    5     -0.37      0.00
    5   15    5     -0.25      0.00
    6   15    5      2.19      0.00
    7   15    5     -0.07      0.00
    8   15    5     -0.53      0.00
   -8   16    5     -0.30      0.00
   -7   16    5     -0.28      0.00
   -6   16    5      0.18      0.00
   -5   16    5      0.90      0.00
   -4   16    5     -3.39      0.00
   -3   16    5     -0.90      0.00
   -2   16    5     -0.03      0.00
   -1   16    5     -0.30      0.00
    0   16    5      2.77      0.00
    1   16    5      1.42      0.00
    2   16    5     -2.42      0.00
    3   16    5      1.51      0.00
    4   16    5      1.58      0.00
    5   16    5      2.42      0.00
    6   16    5      0.35      0.00
    7   16    5      0.29      0.00
   -7   17    5     -0.37      0.00
   -6   17    5     -0.18      0.00
   -5   17    5     -0.61      0.00
   -4   17    5      2.46      0.00
   -3   17    5      2.02      0.00
   -2   17    5      1.11      0.00
   -1   17    5     -1.11      0.00
    0   17    5      2.51      0.00
    1   17    5     -0.98      0.00
    2   17    5      0.56      0.00
    3   17    5      0.07      0.00
    4   17    5      2.22      0.00
    5   17    5     -0.59      0.00
    6   17    5     -0.69      0.00
   -6   18    5     -0.55      0.00
   -5   18    5      2.37      0.00
   -4   18    5     -3.60      0.00
   -3   18    5     -0.32      0.00
   -2   18    5     -0.02      0.00
   -1   18    5     -2.00      0.00
    0   18    5      1.85      0.00
    1   18    5      2.56      0.00
    2   18    5     -0.88      0.00
    3   18    5     -0.32      0.00
    4   18    5      1.64      0.00
    5   18    5      1.16      0.00
   -5   19    5      2.78      0.00
   -4   19    5      0.33      0.00
   -3   19    5      0.45      0.00
   -2   19    5      0.62      0.00
   -1   19    5      0.00      0.00
    0   19    5      0.55      0.00
    1   19    5      1.75      0.00
    2   19    5     -0.02      0.00
    3   19    5      0.17      0.00
    4   19    5      0.16      0.00
   -3   20    5      0.56      0.00
   -2   20    5      1.95      0.00
   -1   20    5     -0.83      0.00
    0   20    5      1.39      0.00
    1   20    5      1.49      0.00
    2   20    5      0.19      0.00
  -10    0    6     -0.60      0.00
   -8    0    6      2.68      0.00
   -6    0    6     -5.56      0.00
   -4    0    6     -7.11      0.00
   -2    0    6     18.44      0.00
    0    0    6    -15.39      0.00
    2    0    6     -2.41      0.00
    4    0    6     14.41      0.00
    6    0    6      7.51      0.00
    8    0    6     -0.20      0.00
   10    0    6      2.67      0.00
  -11    1    6      1.94      0.00
  -10    1    6     -2.46      0.00
   -9    1    6     -0.39      0.00
   -8    1    6      0.13      0.00
   -7    1    6      0.88      0.00
   -6    1    6     -3.21      0.00
   -5    1    6     17.42      0.00
   -4    1    6      6.44      0.00
   -3    1    6      0.94      0.00
   -2    1    6      5.91      0.00
   -1    1    6     65.71      0.00
    0    1    6    -31.17      0.00
    1    1    6     27.39      0.00
    2    1    6      0.30      0.00
    3    1    6    -12.79      0.00
    4    1    6      0.73      0.00
    5    1    6      5.93      0.00
    6    1    6     -3.51      0.00
    7    1    6     -1.29      0.00
    8    1    6      0.87      0.00
    9    1    6      1.51      0.00
   10    1    6      0.58      0.00
   11    1    6     -0.94      0.00
  -12    2    6     -0.87      0.00
  -11    2    6      1.58      0.00
  -10    2    6      0.47      0.00
   -9    2    6     -1.77      0.00
   -8    2    6      2.34      0.00
   -7    2    6      1.39      0.00
   -6    2    6     -6.32      0.00
   -5    2    6     -6.52      0.00
   -4    2    6      1.44      0.00
   -3    2    6     -6.30      0.00
   -2    2    6     -0.42      0.00
   -1    2    6     28.31      0.00
    0    2    6    -13.70      0.00
    1    2    6    -11.31      0.00
    2    2    6      5.87      0.00
    3    2    6      2.90      0.00
    4    2    6      3.84      0.00
    5    2    6      4.07      0.00
    6    2    6      7.26      0.00
    7    2    6     -4.50      0.00
    8    2    6     -2.34      0.00
    9    2    6      0.97      0.00
   10    2    6      0.96      0.00
   11    2    6      0.27      0.00
  -12    3    6     -1.55      0.00
  -11    3    6      2.37      0.00
  -10    3    6     -0.48      0.00
   -9    3    6      1.56      0.00
   -8    3    6      2.23      0.00
   -7    3    6      1.60      0.00
   -6    3    6     -3.14      0.00
   -5    3    6      8.30      0.00
   -4    3    6     15.06      0.00
   -3    3    6      3.62      0.00
   -2    3    6      8.90      0.00
   -1    3    6     38.21      0.00
    0    3    6    -53.27      0.00
    1    3    6      1.78      0.00
    2    3    6     -4.62      0.00
    3    3    6      2.94      0.00
    4    3    6      1.42      0.00
    5    3    6      2.13      0.00
    6    3    6     -5.75      0.00
    7    3    6     -2.65      0.00
    8    3    6      1.56      0.00
    9    3    6      1.62      0.00
   10    3    6      0.21      0.00
   11    3    6      0.48      0.00
  -12    4    6     -2.30      0.00
  -11    4    6      1.98      0.00
  -10    4    6     -0.23      0.00
   -9    4    6     -3.10      0.00
   -8    4    6      0.33      0.00
   -7    4    6      3.24      0.00
   -6    4    6     -5.38      0.00
   -5    4    6     -4.65      0.00
   -4    4    6     10.68      0.00
   -3    4    6     -3.00      0.00
   -2    4    6    -25.32      0.00
   -1    4    6     26.32      0.00
    0    4    6    -10.58      0.00
    1    4    6     -6.96      0.00
    2    4    6     19.83      0.00
    3    4    6     10.00      0.00
    4    4    6    -12.44      0.00
    5    4    6      3.15      0.00
    6    4    6      5.25      0.00
    7    4    6     -4.14      0.00
    8    4    6     -0.72      0.00
    9    4    6     -0.35      0.00
   10    4    6      1.64      0.00
   11    4    6      2.89      0.00
  -12    5    6      0.42      0.00
  -11    5    6      4.88      0.00
  -10    5    6      2.99      0.00
   -9    5    6      1.79      0.00
   -8    5    6      2.57      0.00
   -7    5    6      1.46      0.00
   -6    5    6      0.78      0.00
   -5    5    6     -1.39      0.00
   -4    5    6      5.49      0.00
   -3    5    6     -0.64      0.00
   -2    5    6      2.61      0.00
   -1    5    6      5.03      0.00
    0    5    6    -24.39      0.00
    1    5    6    -13.09      0.00
    2    5    6    -14.47      0.00
    3    5    6     11.44      0.00
    4    5    6     -4.38      0.00
    5    5    6     -2.53      0.00
    6    5    6     -2.70      0.00
    7    5    6     -2.34      0.00
    8    5    6     -0.54      0.00
    9    5    6      2.74      0.00
   10    5    6     -1.72      0.00
   11    5    6      0.71      0.00
  -12    6    6     -2.11      0.00
  -11    6    6      1.24      0.00
  -10    6    6     -3.45      0.00
   -9    6    6     -3.80      0.00
   -8    6    6     -1.10      0.00
   -7    6    6      1.18      0.00
   -6    6    6     -4.05      0.00
   -5    6    6     -0.94      0.00
   -4    6    6      9.06      0.00
   -3    6    6      0.50      0.00
   -2    6    6    -17.91      0.00
   -1    6    6      7.19      0.00
    0    6    6    -14.49      0.00
    1    6    6      1.48      0.00
    2    6    6     16.32      0.00
    3    6    6     10.55      0.00
    4    6    6    -15.12      0.00
    5    6    6     -1.81      0.00
    6    6    6      0.78      0.00
    7    6    6     -0.60      0.00
    8    6    6      2.14      0.00
    9    6    6     -3.82      0.00
   10    6    6      1.73      0.00
   11    6    6      0.70      0.00
  -11    7    6      5.63      0.00
  -10    7    6      1.52      0.00
   -9    7    6     -0.98      0.00
   -8    7    6      0.30      0.00
   -7    7    6      0.13      0.00
   -6    7    6      3.91      0.00
   -5    7    6     -3.04      0.00
   -4    7    6     -5.14      0.00
   -3    7    6     -9.94      0.00
   -2    7    6     -7.50      0.00
   -1    7    6    -13.68      0.00
    0    7    6      3.27      0.00
    1    7    6    -11.97      0.00
    2    7    6    -11.90      0.00
    3    7    6      4.74      0.00
    4    7    6     -6.99      0.00
    5    7    6     -4.60      0.00
    6    7    6      0.33      0.00
    7    7    6     -2.12      0.00
    8    7    6     -0.38      0.00
    9    7    6     -1.42      0.00
   10    7    6     -0.78      0.00
   11    7    6      0.42      0.00
  -11    8    6      0.78      0.00
  -10    8    6     -4.68      0.00
   -9    8    6     -0.35      0.00
   -8    8    6      1.09      0.00
   -7    8    6      1.08      0.00
   -6    8    6     -3.06      0.00
   -5    8    6      3.12      0.00
   -4    8    6     -2.67      0.00
   -3    8    6     -0.09      0.00
   -2    8    6      5.08      0.00
   -1    8    6      2.62      0.00
    0    8    6    -11.43      0.00
    1    8    6      9.20      0.00
    2    8    6      1.17      0.00
    3    8    6      6.40      0.00
    4    8    6     -5.81      0.00
    5    8    6     -1.27      0.00
    6    8    6     -3.09      0.00
    7    8    6      3.25      0.00
    8    8    6      0.24      0.00
    9    8    6     -3.27      0.00
   10    8    6     -0.80      0.00
   11    8    6     -1.34      0.00
  -11    9    6      2.95      0.00
  -10    9    6      0.00      0.00
   -9    9    6     -2.18      0.00
   -8    9    6      0.88      0.00
   -7    9    6     -0.79      0.00
   -6    9    6      1.42      0.00
   -5    9    6     -2.29      0.00
   -4    9    6     -1.39      0.00
   -3    9    6    -12.10      0.00
   -2    9    6     -5.96      0.00
   -1    9    6    -14.59      0.00
    0    9    6      3.66      0.00
    1    9    6     -4.93      0.00
    2    9    6      0.21      0.00
    3    9    6     -4.70      0.00
    4    9    6     -3.34      0.00
    5    9    6     -0.87      0.00
    6    9    6      0.40      0.00
    7    9    6      1.14      0.00
    8    9    6      2.83      0.00
    9    9    6     -2.84      0.00
   10    9    6     -0.12      0.00
  -11   10    6      0.83      0.00
  -10   10    6     -2.61      0.00
   -9   10    6      1.13      0.00
   -8   10    6      1.84      0.00
   -7   10    6      0.93      0.00
   -6   10    6     -3.63      0.00
   -5   10    6      5.11      0.00
   -4   10    6     -6.06      0.00
   -3   10    6     -4.52      0.00
   -2   10    6     10.76      0.00
   -1   10    6      6.86      0.00
    0   10    6     -2.64      0.00
    1   10    6      8.11      0.00
    2   10    6     -4.02      0.00
    3   10    6     -1.37      0.00
    4   10    6     -0.75      0.00
    5   10    6      3.68      0.00
    6   10    6     -2.81      0.00
    7   10    6      3.30      0.00
    8   10    6     -0.13      0.00
    9   10    6     -1.49      0.00
   10   10    6      0.53      0.00
  -10   11    6     -0.81      0.00
   -9   11    6     -1.19      0.00
   -8   11    6      0.05      0.00
   -7   11    6      0.25      0.00
   -6   11    6     -3.75      0.00
   -5   11    6     -3.56      0.00
   -4   11    6      1.35      0.00
   -3   11    6     -7.82      0.00
   -2   11    6     -1.61      0.00
   -1   11    6     -2.51      0.00
    0   11    6     -6.07      0.00
    1   11    6     -5.33      0.00
    2   11    6      7.10      0.00
    3   11    6     -4.37      0.00
    4   11    6     -2.00      0.00
    5   11    6      3.27      0.00
    6   11    6      0.10      0.00
    7   11    6      2.84      0.00
    8   11    6      1.99      0.00
    9   11    6      0.01      0.00
   10   11    6     -1.89      0.00
  -10   12    6     -0.77      0.00
   -9   12    6     -0.60      0.00
   -8   12    6      1.24      0.00
   -7   12    6      0.46      0.00
   -6   12    6     -2.10      0.00
   -5   12    6      2.61      0.00
   -4   12    6      0.33      0.00
   -3   12    6     -1.32      0.00
   -2   12    6      3.28      0.00
   -1   12    6      3.81      0.00
    0   12    6      3.46      0.00
    1   12    6      1.26      0.00
    2   12    6     -0.97      0.00
    3   12    6     -1.18      0.00
    4   12    6     -2.54      0.00
    5   12    6      2.96      0.00
    6   12    6     -0.25      0.00
    7   12    6      0.52      0.00
    8   12    6     -2.41      0.00
    9   12    6     -0.13      0.00
   -9   13    6     -1.23      0.00
   -8   13    6      0.32      0.00
   -7   13    6      1.16      0.00
   -6   13    6     -2.86      0.00
   -5   13    6     -3.16      0.00
   -4   13    6      2.16      0.00
   -3   13    6     -1.14      0.00
   -2   13    6      0.97      0.00
   -1   13    6      2.93      0.00
    0   13    6     -3.26      0.00
    1   13    6     -5.91      0.00
    2   13    6      5.26      0.00
    3   13    6     -0.65      0.00
    4   13    6      1.18      0.00
    5   13    6      0.44      0.00
    6   13    6     -0.69      0.00
    7   13    6      1.52      0.00
    8   13    6      0.04      0.00
    9   13    6      1.08      0.00
   -9   14    6     -0.90      0.00
   -8   14    6      1.85      0.00
   -7   14    6      1.36      0.00
   -6   14    6      1.43      0.00
   -5   14    6      1.54      0.00
   -4   14    6      4.96      0.00
   -3   14    6      3.58      0.00
   -2   14    6     -1.25      0.00
   -1   14    6     -0.94      0.00
    0   14    6      6.61      0.00
    1   14    6      1.46      0.00
    2   14    6      2.33      0.00
    3   14    6      1.20      0.00
    4   14    6     -2.50      0.00
    5   14    6      0.70      0.00
    6   14    6      2.11      0.00
    7   14    6      0.95      0.00
    8   14    6     -2.32      0.00
   -8   15    6      0.53      0.00
   -7   15    6      1.02      0.00
   -6   15    6      0.03      0.00
   -5   15    6     -0.58      0.00
   -4   15    6     -1.46      0.00
   -3   15    6     -0.13      0.00
   -2   15    6      3.11      0.00
   -1   15    6      0.94      0.00
    0   15    6      2.12      0.00
    1   15    6     -0.75      0.00
    2   15    6     -1.48      0.00
    3   15    6      1.62      0.00
    4   15    6      2.62      0.00
    5   15    6      1.87      0.00
    6   15    6     -0.10      0.00
    7   15    6      0.51      0.00
    8   15    6      0.29      0.00
   -8   16    6     -0.08      0.00
   -7   16    6     -0.67      0.00
   -6   16    6     -0.35      0.00
   -5   16    6     -0.82      0.00
   -4   16    6      4.74      0.00
   -3   16    6      1.88      0.00
   -2   16    6      0.34      0.00
   -1   16    6     -1.91      0.00
    0   16    6      3.91      0.00
    1   16    6     -0.26      0.00
    2   16    6      1.28      0.00
    3   16    6     -0.37      0.00
    4   16    6      0.66      0.00
    5   16    6     -0.46      0.00
    6   16    6      1.34      0.00
    7   16    6     -1.23      0.00
   -7   17    6     -1.43      0.00
   -6   17    6      0.54      0.00
   -5   17    6      3.00      0.00
   -4   17    6     -4.00      0.00
   -3   17    6     -1.07      0.00
   -2   17    6      0.16      0.00
   -1   17    6     -2.55      0.00
    0   17    6      1.55      0.00
    1   17    6      2.30      0.00
    2   17    6     -2.02      0.00
    3   17    6      1.52      0.00
    4   17    6      2.12      0.00
    5   17    6      2.49      0.00
    6   17    6     -0.28      0.00
   -6   18    6     -1.04      0.00
   -5   18    6      0.95      0.00
   -4   18    6      0.89      0.00
   -3   18    6     -0.88      0.00
   -2   18    6      1.55      0.00
   -1   18    6     -0.28      0.00
    0   18    6      2.08      0.00
    1   18    6     -0.51      0.00
    2   18    6      0.01      0.00
    3   18    6     -0.51      0.00
    4   18    6      0.51      0.00
    5   18    6      0.44      0.00
   -5   19    6      1.75      0.00
   -4   19    6     -1.64      0.00
   -3   19    6      0.37      0.00
   -2   19    6      1.40      0.00
   -1   19    6     -2.80      0.00
    0   19    6      1.71      0.00
    1   19    6      1.41      0.00
    2   19    6      1.36      0.00
    3   19    6     -0.48      0.00
    4   19    6      1.39      0.00
   -3   20    6     -0.42      0.00
   -2   20    6      0.57      0.00
   -1   20    6      0.10      0.00
    0   20    6      0.91      0.00
    1   20    6      0.90      0.00
    2   20    6      0.88      0.00
   -9    0    7     -0.50      0.00
   -7    0    7      3.26      0.00
   -5    0    7     10.56      0.00
   -3    0    7     -2.97      0.00
   -1    0    7     61.59      0.00
    1    0    7      9.13      0.00
    3    0    7    -12.97      0.00
    5    0    7      2.08      0.00
    7    0    7     -1.30      0.00
    9    0    7      0.74      0.00
  -11    1    7      0.14      0.00
  -10    1    7     -0.68      0.00
   -9    1    7     -1.21      0.00
   -8    1    7      1.25      0.00
   -7    1    7      1.76      0.00
   -6    1    7     -5.95      0.00
   -5    1    7     -3.96      0.00
   -4    1    7      5.62      0.00
   -3    1    7     -1.08      0.00
   -2    1    7     10.93      0.00
   -1    1    7     15.18      0.00
    0    1    7     -3.38      0.00
    1    1    7    -10.73      0.00
    2    1    7      3.17      0.00
    3    1    7      2.63      0.00
    4    1    7     13.35      0.00
    5    1    7      0.90      0.00
    6    1    7      8.12      0.00
    7    1    7     -3.28      0.00
    8    1    7     -2.02      0.00
    9    1    7      0.39      0.00
   10    1    7      3.42      0.00
   11    1    7     -0.81      0.00
  -11    2    7      2.41      0.00
  -10    2    7     -1.29      0.00
   -9    2    7      1.41      0.00
   -8    2    7     -0.20      0.00
   -7    2    7      3.81      0.00
   -6    2    7     -4.95      0.00
   -5    2    7      6.83      0.00
   -4    2    7     10.89      0.00
   -3    2    7      0.96      0.00
   -2    2    7     -2.52      0.00
   -1    2    7     45.60      0.00
    0    2    7    -42.00      0.00
    1    2    7     -1.29      0.00
    2    2    7      2.47      0.00
    3    2    7     -2.18      0.00
    4    2    7     -0.96      0.00
    5    2    7      0.68      0.00
    6    2    7     -4.45      0.00
    7    2    7     -1.67      0.00
    8    2    7      2.02      0.00
    9    2    7     -0.43      0.00
   10    2    7      0.72      0.00
   11    2    7      0.18      0.00
  -12    3    7     -2.66      0.00
  -11    3    7      0.49      0.00
  -10    3    7      0.58      0.00
   -9    3    7     -2.59      0.00
   -8    3    7      0.61      0.00
   -7    3    7      5.27      0.00
   -6    3    7     -5.34      0.00
   -5    3    7     -5.73      0.00
   -4    3    7     11.75      0.00
   -3    3    7      2.45      0.00
   -2    3    7    -17.32      0.00
   -1    3    7     28.71      0.00
    0    3    7      5.00      0.00
    1    3    7    -15.18      0.00
    2    3    7     11.45      0.00
    3    3    7     10.33      0.00
    4    3    7     -2.58      0.00
    5    3    7      1.77      0.00
    6    3    7      7.21      0.00
    7    3    7     -6.30      0.00
    8    3    7     -3.45      0.00
    9    3    7      0.97      0.00
   10    3    7      0.47      0.00
   11    3    7      1.31      0.00
  -12    4    7      0.05      0.00
  -11    4    7      3.37      0.00
  -10    4    7      2.98      0.00
   -9    4    7      2.60      0.00
   -8    4    7      1.06      0.00
   -7    4    7      2.61      0.00
   -6    4    7     -2.03      0.00
   -5    4    7     -0.85      0.00
   -4    4    7      8.33      0.00
   -3    4    7      4.63      0.00
   -2    4    7     -3.59      0.00
   -1    4    7     11.82      0.00
    0    4    7    -36.51      0.00
    1    4    7    -13.82      0.00
    2    4    7     -7.34      0.00
    3    4    7     12.61      0.00
    4    4    7     -1.39      0.00
    5    4    7     -4.55      0.00
    6    4    7     -3.44      0.00
    7    4    7     -0.69      0.00
    8    4    7      1.47      0.00
    9    4    7      0.58      0.00
   10    4    7     -1.10      0.00
   11    4    7      1.38      0.00
  -12    5    7     -3.62      0.00
  -11    5    7      1.45      0.00
  -10    5    7     -1.39      0.00
   -9    5    7     -4.09      0.00
   -8    5    7     -0.70      0.00
   -7    5    7      4.35      0.00
   -6    5    7     -3.18      0.00
   -5    5    7     -0.12      0.00
   -4    5    7     10.94      0.00
   -3    5    7      5.71      0.00
   -2    5    7    -28.65      0.00
   -1    5    7     14.98      0.00
    0    5    7      2.91      0.00
    1    5    7     -3.44      0.00
    2    5    7     14.86      0.00
    3    5    7     10.89      0.00
    4    5    7    -13.36      0.00
    5    5    7     -0.93      0.00
    6    5    7      3.57      0.00
    7    5    7     -3.16      0.00
    8    5    7      0.20      0.00
    9    5    7     -1.41      0.00
   10    5    7      2.07      0.00
   11    5    7      2.38      0.00
  -12    6    7     -0.39      0.00
  -11    6    7      6.76      0.00
  -10    6    7      2.38      0.00
   -9    6    7     -1.08      0.00
   -8    6    7      0.11      0.00
   -7    6    7      1.06      0.00
   -6    6    7      0.92      0.00
   -5    6    7     -4.38      0.00
   -4    6    7     -7.22      0.00
   -3    6    7     -2.98      0.00
   -2    6    7     -5.84      0.00
   -1    6    7     -9.70      0.00
    0    6    7     -7.44      0.00
    1    6    7    -14.28      0.00
    2    6    7    -15.50      0.00
    3    6    7     12.51      0.00
    4    6    7     -4.49      0.00
    5    6    7     -6.57      0.00
    6    6    7     -0.40      0.00
    7    6    7     -0.35      0.00
    8    6    7     -0.91      0.00
    9    6    7     -0.39      0.00
   10    6    7     -2.59      0.00
   11    6    7      0.75      0.00
  -11    7    7      0.76      0.00
  -10    7    7     -3.16      0.00
   -9    7    7     -2.27      0.00
   -8    7    7      1.05      0.00
   -7    7    7      2.16      0.00
   -6    7    7     -2.64      0.00
   -5    7    7      3.27      0.00
   -4    7    7      4.44      0.00
   -3    7    7      5.14      0.00
   -2    7    7     -8.93      0.00
   -1    7    7      2.84      0.00
    0    7    7     -7.33      0.00
    1    7    7      6.20      0.00
    2    7    7      4.47      0.00
    3    7    7      6.33      0.00
    4    7    7     -9.50      0.00
    5    7    7     -3.24      0.00
    6    7    7     -1.92      0.00
    7    7    7      0.71      0.00
    8    7    7      1.75      0.00
    9    7    7     -2.89      0.00
   10    7    7     -0.59      0.00
   11    7    7     -0.26      0.00
  -11    8    7      5.51      0.00
  -10    8    7     -0.03      0.00
   -9    8    7     -4.10      0.00
   -8    8    7      0.25      0.00
   -7    8    7     -0.87      0.00
   -6    8    7      1.66      0.00
   -5    8    7     -2.77      0.00
   -4    8    7     -7.38      0.00
   -3    8    7    -10.52      0.00
   -2    8    7     -8.69      0.00
   -1    8    7    -13.39      0.00
    0    8    7      6.49      0.00
    1    8    7     -6.47      0.00
    2    8    7     -7.03      0.00
    3    8    7      1.12      0.00
    4    8    7     -3.03      0.00
    5    8    7     -2.40      0.00
    6    8    7      1.72      0.00
    7    8    7      0.22      0.00
    8    8    7      1.58      0.00
    9    8    7     -2.80      0.00
   10    8    7     -0.58      0.00
  -11    9    7     -0.33      0.00
  -10    9    7     -3.14      0.00
   -9    9    7      1.16      0.00
   -8    9    7      2.92      0.00
   -7    9    7      2.68      0.00
   -6    9    7     -3.70      0.00
   -5    9    7      5.37      0.00
   -4    9    7     -3.73      0.00
   -3    9    7      0.19      0.00
   -2    9    7      7.08      0.00
   -1    9    7      6.99      0.00
    0    9    7     -7.84      0.00
    1    9    7      8.51      0.00
    2    9    7     -4.10      0.00
    3    9    7      0.75      0.00
    4    9    7     -1.89      0.00
    5    9    7      1.65      0.00
    6    9    7     -4.13      0.00
    7    9    7      2.42      0.00
    8    9    7      1.74      0.00
    9    9    7     -1.78      0.00
   10    9    7     -2.64      0.00
  -11   10    7      1.59      0.00
  -10   10    7     -0.28      0.00
   -9   10    7     -2.39      0.00
   -8   10    7      0.00      0.00
   -7   10    7     -0.38      0.00
   -6   10    7     -2.88      0.00
   -5   10    7     -3.93      0.00
   -4   10    7      0.97      0.00
   -3   10    7     -8.92      0.00
   -2   10    7     -5.29      0.00
   -1   10    7     -5.03      0.00
    0   10    7      0.27      0.00
    1   10    7     -2.58      0.00
    2   10    7      5.22      0.00
    3   10    7     -4.07      0.00
    4   10    7     -2.79      0.00
    5   10    7      3.19      0.00
    6   10    7      1.75      0.00
    7   10    7      2.16      0.00
    8   10    7      3.77      0.00
    9   10    7     -0.51      0.00
   10   10    7     -0.86      0.00
  -10   11    7     -2.54      0.00
   -9   11    7      0.90      0.00
   -8   11    7      1.61      0.00
   -7   11    7      1.33      0.00
   -6   11    7     -3.35      0.00
   -5   11    7      3.21      0.00
   -4   11    7     -1.78      0.00
   -3   11    7     -2.43      0.00
   -2   11    7      4.54      0.00
   -1   11    7      7.65      0.00
    0   11    7     -2.32      0.00
    1   11    7      0.86      0.00
    2   11    7     -4.63      0.00
    3   11    7     -2.06      0.00
    4   11    7     -1.04      0.00
    5   11    7      3.78      0.00
    6   11    7     -1.85      0.00
    7   11    7      0.25      0.00
    8   11    7     -0.02      0.00
    9   11    7     -1.23      0.00
  -10   12    7     -0.41      0.00
   -9   12    7     -1.11      0.00
   -8   12    7     -0.87      0.00
   -7   12    7      0.43      0.00
   -6   12    7     -4.37      0.00
   -5   12    7     -4.22      0.00
   -4   12    7      4.12      0.00
   -3   12    7     -1.23      0.00
   -2   12    7     -3.10      0.00
   -1   12    7      2.41      0.00
    0   12    7     -3.87      0.00
    1   12    7     -4.46      0.00
    2   12    7      8.01      0.00
    3   12    7     -0.34      0.00
    4   12    7     -1.44      0.00
    5   12    7      1.41      0.00
    6   12    7      0.32      0.00
    7   12    7      2.97      0.00
    8   12    7      0.95      0.00
    9   12    7      1.89      0.00
   -9   13    7     -0.91      0.00
   -8   13    7      1.86      0.00
   -7   13    7      0.67      0.00
   -6   13    7      1.38      0.00
   -5   13    7      2.20      0.00
   -4   13    7      1.58      0.00
   -3   13    7      1.51      0.00
   -2   13    7     -0.79      0.00
   -1   13    7      1.60      0.00
    0   13    7      4.83      0.00
    1   13    7     -0.12      0.00
    2   13    7     -1.51      0.00
    3   13    7      0.87      0.00
    4   13    7     -2.00      0.00
    5   13    7      1.65      0.00
    6   13    7      0.65      0.00
    7   13    7      0.58      0.00
    8   13    7     -2.83      0.00
    9   13    7     -0.76      0.00
   -9   14    7     -1.96      0.00
   -8   14    7      0.87      0.00
   -7   14    7      0.84      0.00
   -6   14    7     -1.82      0.00
   -5   14    7     -1.81      0.00
   -4   14    7      2.28      0.00
   -3   14    7      2.41      0.00
   -2   14    7      2.90      0.00
   -1   14    7      1.91      0.00
    0   14    7      0.17      0.00
    1   14    7     -2.38      0.00
    2   14    7      1.83      0.00
    3   14    7      1.60      0.00
    4   14    7      2.17      0.00
    5   14    7      0.21      0.00
    6   14    7     -0.47      0.00
    7   14    7      1.63      0.00
    8   14    7     -0.29      0.00
   -8   15    7      1.00      0.00
   -7   15    7     -1.13      0.00
   -6   15    7      1.18      0.00
   -5   15    7      1.39      0.00
   -4   15    7      3.78      0.00
   -3   15    7      1.76      0.00
   -2   15    7     -1.38      0.00
   -1   15    7     -1.60      0.00
    0   15    7      4.65      0.00
    1   15    7      1.98      0.00
    2   15    7      0.65      0.00
    3   15    7      0.74      0.00
    4   15    7     -0.87      0.00
    5   15    7      0.16      0.00
    6   15    7      1.76      0.00
    7   15    7      0.58      0.00
   -8   16    7     -0.18      0.00
   -7   16    7     -0.06      0.00
   -6   16    7      0.67      0.00
   -5   16    7      2.26      0.00
   -4   16    7     -3.17      0.00
   -3   16    7     -0.65      0.00
   -2   16    7      2.04      0.00
   -1   16    7     -0.71      0.00
    0   16    7      1.29      0.00
    1   16    7      1.45      0.00
    2   16    7     -3.37      0.00
    3   16    7      1.99      0.00
    4   16    7      2.49      0.00
    5   16    7      2.70      0.00
    6   16    7     -0.02      0.00
    7   16    7      0.27      0.00
   -7   17    7     -1.95      0.00
   -6   17    7     -1.88      0.00
   -5   17    7     -0.57      0.00
   -4   17    7      2.28      0.00
   -3   17    7     -1.03      0.00
   -2   17    7      1.71      0.00
   -1   17    7     -0.79      0.00
    0   17    7      2.32      0.00
    1   17    7     -1.02      0.00
    2   17    7      0.01      0.00
    3   17    7     -0.73      0.00
    4   17    7      0.69      0.00
    5   17    7      0.03      0.00
    6   17    7      0.59      0.00
   -6   18    7      0.97      0.00
   -5   18    7      3.15      0.00
   -4   18    7     -2.22      0.00
   -3   18    7     -0.75      0.00
   -2   18    7     -0.40      0.00
   -1   18    7     -3.55      0.00
    0   18    7      1.38      0.00
    1   18    7      1.96      0.00
    2   18    7     -0.24      0.00
    3   18    7      0.89      0.00
    4   18    7      1.88      0.00
    5   18    7      1.22      0.00
   -4   19    7      0.06      0.00
   -3   19    7     -1.34      0.00
   -2   19    7      1.99      0.00
   -1   19    7      0.94      0.00
    0   19    7      1.72      0.00
    1   19    7     -0.96      0.00
    2   19    7      0.50      0.00
    3   19    7      0.53      0.00
    4   19    7     -1.06      0.00
   -3   20    7      1.15      0.00
   -2   20    7      1.05      0.00
   -1   20    7     -2.53      0.00
    0   20    7      1.72      0.00
    1   20    7      0.18      0.00
    2   20    7      2.20      0.00
  -10    0    8     -2.09      0.00
   -8    0    8      0.35      0.00
   -6    0    8     -2.91      0.00
   -4    0    8     13.09      0.00
   -2    0    8     18.19      0.00
    0    0    8      6.68      0.00
    2    0    8      1.66      0.00
    4    0    8     17.14      0.00
    6    0    8      6.84      0.00
    8    0    8     -2.01      0.00
  -10    1    8     -0.71      0.00
   -9    1    8      0.49      0.00
   -8    1    8     -0.77      0.00
   -7    1    8      4.83      0.00
   -6    1    8     -3.51      0.00
   -5    1    8      0.55      0.00
   -4    1    8      4.97      0.00
   -3    1    8     -3.96      0.00
   -2    1    8     -4.97      0.00
   -1    1    8     41.05      0.00
    0    1    8    -18.20      0.00
    1    1    8     -6.52      0.00
    2    1    8      4.15      0.00
    3    1    8     -6.11      0.00
    4    1    8     -1.69      0.00
    5    1    8     -0.04      0.00
    6    1    8     -2.43      0.00
    7    1    8     -0.74      0.00
    8    1    8      0.81      0.00
    9    1    8     -0.47      0.00
   10    1    8      0.48      0.00
  -11    2    8     -1.20      0.00
  -10    2    8     -0.36      0.00
   -9    2    8     -1.74      0.00
   -8    2    8      0.03      0.00
   -7    2    8      5.21      0.00
   -6    2    8     -2.77      0.00
   -5    2    8     -5.60      0.00
   -4    2    8     15.10      0.00
   -3    2    8      4.95      0.00
   -2    2    8      0.82      0.00
   -1    2    8     17.56      0.00
    0    2    8     14.14      0.00
    1    2    8    -21.36      0.00
    2    2    8      3.81      0.00
    3    2    8      8.01      0.00
    4    2    8      8.64      0.00
    5    2    8     -0.97      0.00
    6    2    8      6.58      0.00
    7    2    8     -5.98      0.00
    8    2    8     -3.16      0.00
    9    2    8      0.56      0.00
   10    2    8      0.16      0.00
   11    2    8     -1.26      0.00
  -11    3    8      1.45      0.00
  -10    3    8      1.71      0.00
   -9    3    8      3.37      0.00
   -8    3    8     -0.95      0.00
   -7    3    8      3.89      0.00
   -6    3    8     -3.50      0.00
   -5    3    8     -2.58      0.00
   -4    3    8      8.54      0.00
   -3    3    8      4.34      0.00
   -2    3    8     -9.77      0.00
   -1    3    8     13.66      0.00
    0    3    8    -31.93      0.00
    1    3    8    -12.65      0.00
    2    3    8      2.52      0.00
    3    3    8      8.14      0.00
    4    3    8     -0.88      0.00
    5    3    8     -3.54      0.00
    6    3    8     -3.22      0.00
    7    3    8      0.34      0.00
    8    3    8      2.02      0.00
    9    3    8     -2.19      0.00
   10    3    8      0.67      0.00
   11    3    8      1.84      0.00
  -12    4    8     -2.88      0.00
  -11    4    8      0.06      0.00
  -10    4    8      0.01      0.00
   -9    4    8     -2.93      0.00
   -8    4    8     -0.61      0.00
   -7    4    8      6.64      0.00
   -6    4    8     -1.47      0.00
   -5    4    8     -1.93      0.00
   -4    4    8     11.10      0.00
   -3    4    8     10.25      0.00
   -2    4    8    -24.18      0.00
   -1    4    8     14.85      0.00
    0    4    8     19.50      0.00
    1    4    8    -14.80      0.00
    2    4    8      7.82      0.00
    3    4    8     11.18      0.00
    4    4    8     -4.93      0.00
    5    4    8     -1.77      0.00
    6    4    8      4.65      0.00
    7    4    8     -5.65      0.00
    8    4    8     -1.94      0.00
    9    4    8      0.59      0.00
   10    4    8     -0.12      0.00
   11    4    8      1.45      0.00
  -12    5    8      0.23      0.00
  -11    5    8      3.81      0.00
  -10    5    8      3.03      0.00
   -9    5    8      0.62      0.00
   -8    5    8     -0.95      0.00
   -7    5    8      1.24      0.00
   -6    5    8     -0.74      0.00
   -5    5    8     -5.33      0.00
   -4    5    8     -4.40      0.00
   -3    5    8      5.08      0.00
   -2    5    8     -5.26      0.00
   -1    5    8    -11.50      0.00
    0    5    8    -14.49      0.00
    1    5    8    -13.11      0.00
    2    5    8     -9.42      0.00
    3    5    8     14.54      0.00
    4    5    8     -0.53      0.00
    5    5    8     -8.79      0.00
    6    5    8     -1.41      0.00
    7    5    8      1.64      0.00
    8    5    8      0.24      0.00
    9    5    8     -1.15      0.00
   10    5    8     -1.63      0.00
   11    5    8      1.25      0.00
  -12    6    8     -3.29      0.00
  -11    6    8      1.22      0.00
  -10    6    8     -0.96      0.00
   -9    6    8     -3.24      0.00
   -8    6    8      0.51      0.00
   -7    6    8      3.43      0.00
   -6    6    8     -1.14      0.00
   -5    6    8      3.65      0.00
   -4    6    8      5.78      0.00
   -3    6    8      8.26      0.00
   -2    6    8    -20.59      0.00
   -1    6    8      1.35      0.00
    0    6    8      6.18      0.00
    1    6    8     -0.81      0.00
    2    6    8      4.30      0.00
    3    6    8      4.28      0.00
    4    6    8     -8.81      0.00
    5    6    8     -4.09      0.00
    6    6    8      0.26      0.00
    7    6    8     -1.20      0.00
    8    6    8      1.43      0.00
    9    6    8     -1.11      0.00
   10    6    8      0.92      0.00
   11    6    8      0.70      0.00
  -11    7    8      5.73      0.00
  -10    7    8      0.44      0.00
   -9    7    8     -4.71      0.00
   -8    7    8     -0.51      0.00
   -7    7    8     -0.19      0.00
   -6    7    8      0.97      0.00
   -5    7    8     -3.80      0.00
   -4    7    8    -13.14      0.00
   -3    7    8     -3.65      0.00
   -2    7    8     -4.90      0.00
   -1    7    8    -14.20      0.00
    0    7    8      4.88      0.00
    1    7    8     -6.70      0.00
    2    7    8    -10.93      0.00
    3    7    8      6.97      0.00
    4    7    8     -0.60      0.00
    5    7    8     -5.02      0.00
    6    7    8      1.04      0.00
    7    7    8      1.23      0.00
    8    7    8     -0.35      0.00
    9    7    8     -1.95      0.00
   10    7    8     -2.00      0.00
  -11    8    8     -1.00      0.00
  -10    8    8     -0.67      0.00
   -9    8    8     -0.12      0.00
   -8    8    8      3.04      0.00
   -7    8    8      2.84      0.00
   -6    8    8     -3.16      0.00
   -5    8    8      4.82      0.00
   -4    8    8     -0.37      0.00
   -3    8    8      4.67      0.00
   -2    8    8     -1.87      0.00
   -1    8    8      1.98      0.00
    0    8    8     -7.53      0.00
    1    8    8      6.53      0.00
    2    8    8     -2.90      0.00
    3    8    8     -0.11      0.00
    4    8    8     -3.49      0.00
    5    8    8     -1.75      0.00
    6    8    8     -4.04      0.00
    7    8    8      1.38      0.00
    8    8    8      2.86      0.00
    9    8    8     -0.96      0.00
   10    8    8     -3.47      0.00
  -11    9    8      2.58      0.00
  -10    9    8     -0.22      0.00
   -9    9    8     -4.30      0.00
   -8    9    8      0.19      0.00
   -7    9    8     -0.85      0.00
   -6    9    8     -0.99      0.00
   -5    9    8     -3.23      0.00
   -4    9    8     -3.81      0.00
   -3    9    8     -6.97      0.00
   -2    9    8     -5.87      0.00
   -1    9    8     -6.03      0.00
    0    9    8      7.08      0.00
    1    9    8     -0.65      0.00
    2    9    8      0.67      0.00
    3    9    8     -2.98      0.00
    4    9    8     -1.02      0.00
    5    9    8      2.25      0.00
    6    9    8      3.36      0.00
    7    9    8      0.96      0.00
    8    9    8      3.16      0.00
    9    9    8     -0.74      0.00
   10    9    8     -0.24      0.00
  -11   10    8     -1.58      0.00
  -10   10    8     -1.92      0.00
   -9   10    8      1.54      0.00
   -8   10    8      1.77      0.00
   -7   10    8      2.58      0.00
   -6   10    8     -4.73      0.00
   -5   10    8      3.47      0.00
   -4   10    8     -3.03      0.00
   -3   10    8     -0.19      0.00
   -2   10    8      2.80      0.00
   -1   10    8      7.91      0.00
    0   10    8     -8.61      0.00
    1   10    8      2.21      0.00
    2   10    8     -5.50      0.00
    3   10    8     -1.88      0.00
    4   10    8     -0.33      0.00
    5   10    8      2.69      0.00
    6   10    8     -3.07      0.00
    7   10    8      0.43      0.00
    8   10    8      2.51      0.00
    9   10    8     -0.90      0.00
   10   10    8     -3.11      0.00
  -10   11    8      0.36      0.00
   -9   11    8     -1.23      0.00
   -8   11    8     -1.48      0.00
   -7   11    8      0.64      0.00
   -6   11    8     -3.89      0.00
   -5   11    8     -4.68      0.00
   -4   11    8      4.38      0.00
   -3   11    8     -1.94      0.00
   -2   11    8     -6.11      0.00
   -1   11    8      2.17      0.00
    0   11    8      0.55      0.00
    1   11    8     -1.89      0.00
    2   11    8      7.89      0.00
    3   11    8     -1.53      0.00
    4   11    8     -3.02      0.00
    5   11    8      2.73      0.00
    6   11    8      2.55      0.00
    7   11    8      2.26      0.00
    8   11    8      2.27      0.00
    9   11    8      2.06      0.00
  -10   12    8     -2.29      0.00
   -9   12    8      0.55      0.00
   -8   12    8      1.01      0.00
   -7   12    8      0.55      0.00
   -6   12    8     -0.59      0.00
   -5   12    8      0.59      0.00
   -4   12    8     -1.08      0.00
   -3   12    8      0.27      0.00
   -2   12    8     -0.14      0.00
   -1   12    8      4.36      0.00
    0   12    8     -0.16      0.00
    1   12    8     -2.52      0.00
    2   12    8     -4.85      0.00
    3   12    8      0.03      0.00
    4   12    8     -0.15      0.00
    5   12    8      2.07      0.00
    6   12    8     -0.10      0.00
    7   12    8     -0.88      0.00
    8   12    8     -0.98      0.00
    9   12    8     -1.60      0.00
   -9   13    8     -1.53      0.00
   -8   13    8      0.05      0.00
   -7   13    8      0.50      0.00
   -6   13    8     -2.82      0.00
   -5   13    8     -2.44      0.00
   -4   13    8      5.88      0.00
   -3   13    8      4.14      0.00
   -2   13    8     -1.29      0.00
   -1   13    8      2.72      0.00
    0   13    8     -0.74      0.00
    1   13    8     -2.42      0.00
    2   13    8      5.22      0.00
    3   13    8      1.96      0.00
    4   13    8      0.16      0.00
    5   13    8     -1.00      0.00
    6   13    8      0.02      0.00
    7   13    8      2.43      0.00
    8   13    8     -0.62      0.00
   -9   14    8     -1.01      0.00
   -8   14    8      0.95      0.00
   -7   14    8     -1.40      0.00
   -6   14    8      2.81      0.00
   -5   14    8      1.86      0.00
   -4   14    8      0.18      0.00
   -3   14    8      1.35      0.00
   -2   14    8     -1.88      0.00
   -1   14    8     -0.03      0.00
    0   14    8      4.64      0.00
    1   14    8      2.20      0.00
    2   14    8     -1.60      0.00
    3   14    8      1.58      0.00
    4   14    8     -0.37      0.00
    5   14    8      0.89      0.00
    6   14    8      0.88      0.00
    7   14    8      1.45      0.00
    8   14    8     -1.84      0.00
   -8   15    8      1.18      0.00
   -7   15    8      0.61      0.00
   -6   15    8     -0.60      0.00
   -5   15    8      0.80      0.00
   -4   15    8      0.11      0.00
   -3   15    8      1.55      0.00
   -2   15    8      3.62      0.00
   -1   15    8      1.33      0.00
    0   15    8      0.36      0.00
    1   15    8      0.11      0.00
    2   15    8     -2.08      0.00
    3   15    8      1.60      0.00
    4   15    8      2.56      0.00
    5   15    8      1.30      0.00
    6   15    8      0.08      0.00
    7   15    8      0.49      0.00
   -7   16    8     -3.16      0.00
   -6   16    8     -0.66      0.00
   -5   16    8      0.13      0.00
   -4   16    8      2.44      0.00
   -3   16    8     -0.31      0.00
   -2   16    8     -0.27      0.00
   -1   16    8     -1.07      0.00
    0   16    8      2.08      0.00
    1   16    8      1.58      0.00
    2   16    8     -0.26      0.00
    3   16    8      0.24      0.00
    4   16    8      0.53      0.00
    5   16    8     -0.32      0.00
    6   16    8      0.90      0.00
   -7   17    8     -0.02      0.00
   -6   17    8      1.29      0.00
   -5   17    8      3.44      0.00
   -4   17    8     -3.45      0.00
   -3   17    8     -1.99      0.00
   -2   17    8     -0.57      0.00
   -1   17    8     -1.01      0.00
    0   17    8      0.63      0.00
    1   17    8      2.33      0.00
    2   17    8     -3.73      0.00
    3   17    8      1.09      0.00
    4   17    8      2.25      0.00
    5   17    8      1.71      0.00
    6   17    8     -0.41      0.00
   -6   18    8     -1.43      0.00
   -5   18    8     -1.20      0.00
   -4   18    8      1.26      0.00
   -3   18    8     -1.18      0.00
   -2   18    8      2.98      0.00
   -1   18    8      0.73      0.00
    0   18    8      1.25      0.00
    1   18    8     -1.30      0.00
    2   18    8      0.03      0.00
    3   18    8      0.13      0.00
    4   18    8      0.11      0.00
    5   18    8      0.53      0.00
   -4   19    8     -0.69      0.00
   -3   19    8     -0.30      0.00
   -2   19    8     -1.06      0.00
   -1   19    8     -2.84      0.00
    0   19    8      1.97      0.00
    1   19    8      0.93      0.00
    2   19    8      0.67      0.00
    3   19    8      0.41      0.00
   -2   20    8      2.01      0.00
   -1   20    8      0.96      0.00
    0   20    8      0.83      0.00
    1   20    8     -1.54      0.00
   -9    0    9     -0.30      0.00
   -7    0    9      4.49      0.00
   -5    0    9     -6.66      0.00
   -3    0    9     -7.47      0.00
   -1    0    9     28.34      0.00
    1    0    9     -9.61      0.00
    3    0    9     -4.50      0.00
    5    0    9      0.62      0.00
    7    0    9     -0.14      0.00
  -10    1    9     -2.44      0.00
   -9    1    9     -0.51      0.00
   -8    1    9     -0.16      0.00
   -7    1    9      3.06      0.00
   -6    1    9      1.27      0.00
   -5    1    9     -3.23      0.00
   -4    1    9     18.92      0.00
   -3    1    9      3.75      0.00
   -2    1    9     18.34      0.00
   -1    1    9      3.93      0.00
    0    1    9     14.59      0.00
    1    1    9    -15.23      0.00
    2    1    9     -1.29      0.00
    3    1    9      4.20      0.00
    4    1    9     14.39      0.00
    5    1    9     -1.63      0.00
    6    1    9      4.40      0.00
    7    1    9     -2.99      0.00
    8    1    9     -1.96      0.00
    9    1    9     -0.22      0.00
  -11    2    9      1.82      0.00
  -10    2    9      0.61      0.00
   -9    2    9      2.60      0.00
   -8    2    9     -1.74      0.00
   -7    2    9      4.33      0.00
   -6    2    9     -3.20      0.00
   -5    2    9     -6.44      0.00
   -4    2    9      6.08      0.00
   -3    2    9     -0.94      0.00
   -2    2    9     -9.91      0.00
   -1    2    9     13.33      0.00
    0    2    9    -17.24      0.00
    1    2    9    -10.23      0.00
    2    2    9      6.89      0.00
    3    2    9      2.74      0.00
    4    2    9     -2.13      0.00
    5    2    9     -0.31      0.00
    6    2    9     -2.98      0.00
    7    2    9      0.71      0.00
    8    2    9      0.32      0.00
    9    2    9     -2.13      0.00
   10    2    9      0.94      0.00
   11    2    9      1.22      0.00
  -11    3    9     -1.68      0.00
  -10    3    9     -0.33      0.00
   -9    3    9     -1.04      0.00
   -8    3    9     -0.99      0.00
   -7    3    9      6.77      0.00
   -6    3    9      1.74      0.00
   -5    3    9     -4.46      0.00
   -4    3    9     13.22      0.00
   -3    3    9     11.30      0.00
   -2    3    9     -6.44      0.00
   -1    3    9      5.27      0.00
    0    3    9     25.45      0.00
    1    3    9    -24.72      0.00
    2    3    9     -0.27      0.00
    3    3    9     10.44      0.00
    4    3    9      4.53      0.00
    5    3    9     -3.40      0.00
    6    3    9      3.55      0.00
    7    3    9     -6.18      0.00
    8    3    9     -1.97      0.00
    9    3    9      0.62      0.00
   10    3    9     -2.75      0.00
   11    3    9     -0.92      0.00
  -12    4    9      1.14      0.00
  -11    4    9      0.60      0.00
  -10    4    9      2.15      0.00
   -9    4    9      3.15      0.00
   -8    4    9     -2.21      0.00
   -7    4    9      1.00      0.00
   -6    4    9     -0.83      0.00
   -5    4    9     -5.94      0.00
   -4    4    9      0.04      0.00
   -3    4    9      7.51      0.00
   -2    4    9     -6.30      0.00
   -1    4    9    -14.00      0.00
    0    4    9    -12.87      0.00
    1    4    9     -8.88      0.00
    2    4    9      0.22      0.00
    3    4    9     10.84      0.00
    4    4    9      1.23      0.00
    5    4    9     -6.95      0.00
    6    4    9     -1.52      0.00
    7    4    9      2.50      0.00
    8    4    9      0.75      0.00
    9    4    9     -2.95      0.00
   10    4    9      1.23      0.00
   11    4    9      2.09      0.00
  -12    5    9     -1.65      0.00
  -11    5    9      1.07      0.00
  -10    5    9     -0.28      0.00
   -9    5    9     -2.43      0.00
   -8    5    9     -0.52      0.00
   -7    5    9      4.78      0.00
   -6    5    9      1.20      0.00
   -5    5    9      1.93      0.00
   -4    5    9      2.98      0.00
   -3    5    9      9.46      0.00
   -2    5    9    -19.99      0.00
   -1    5    9     -3.60      0.00
    0    5    9     20.09      0.00
    1    5    9    -11.63      0.00
    2    5    9      0.53      0.00
    3    5    9      4.11      0.00
    4    5    9     -3.28      0.00
    5    5    9     -4.21      0.00
    6    5    9      1.32      0.00
    7    5    9     -3.21      0.00
    8    5    9      0.18      0.00
    9    5    9      0.64      0.00
   10    5    9      0.23      0.00
   11    5    9      0.50      0.00
  -12    6    9     -0.23      0.00
  -11    6    9      2.92      0.00
  -10    6    9      0.88      0.00
   -9    6    9     -2.55      0.00
   -8    6    9     -1.50      0.00
   -7    6    9     -0.29      0.00
   -6    6    9      0.23      0.00
   -5    6    9     -4.51      0.00
   -4    6    9    -12.91      0.00
   -3    6    9      4.01      0.00
   -2    6    9      1.98      0.00
   -1    6    9    -20.06      0.00
    0    6    9      2.38      0.00
    1    6    9     -4.24      0.00
    2    6    9     -7.84      0.00
    3    6    9      8.70      0.00
    4    6    9      2.55      0.00
    5    6    9     -8.14      0.00
    6    6    9     -0.96      0.00
    7    6    9      2.88      0.00
    8    6    9     -0.49      0.00
    9    6    9     -1.61      0.00
   10    6    9     -1.18      0.00
  -11    7    9     -0.14      0.00
  -10    7    9      1.39      0.00
   -9    7    9     -1.23      0.00
   -8    7    9      1.97      0.00
   -7    7    9      2.02      0.00
   -6    7    9     -1.61      0.00
   -5    7    9      4.52      0.00
   -4    7    9     -0.11      0.00
   -3    7    9      4.66      0.00
   -2    7    9    -10.01      0.00
   -1    7    9     -6.10      0.00
    0    7    9     -0.05      0.00
    1    7    9      0.87      0.00
    2    7    9     -2.06      0.00
    3    7    9     -3.77      0.00
    4    7    9     -3.43      0.00
    5    7    9     -3.49      0.00
    6    7    9     -2.29      0.00
    7    7    9      0.57      0.00
    8    7    9      2.64      0.00
    9    7    9      0.00      0.00
   10    7    9     -1.39      0.00
  -11    8    9      2.30      0.00
  -10    8    9     -0.15      0.00
   -9    8    9     -5.00      0.00
   -8    8    9      0.27      0.00
   -7    8    9     -0.45      0.00
   -6    8    9      0.65      0.00
   -5    8    9     -2.24      0.00
   -4    8    9    -10.37      0.00
   -3    8    9     -2.08      0.00
   -2    8    9      0.08      0.00
   -1    8    9     -8.34      0.00
    0    8    9     10.06      0.00
    1    8    9      1.26      0.00
    2    8    9     -3.08      0.00
    3    8    9     -0.83      0.00
    4    8    9      2.43      0.00
    5    8    9     -0.11      0.00
    6    8    9      2.13      0.00
    7    8    9      1.26      0.00
    8    8    9      1.12      0.00
    9    8    9     -0.54      0.00
   10    8    9     -0.93      0.00
  -11    9    9     -2.44      0.00
  -10    9    9      1.29      0.00
   -9    9    9      1.01      0.00
   -8    9    9      1.69      0.00
   -7    9    9      2.44      0.00
   -6    9    9     -5.32      0.00
   -5    9    9      3.49      0.00
   -4    9    9     -3.27      0.00
   -3    9    9      2.06      0.00
   -2    9    9     -1.36      0.00
   -1    9    9      2.87      0.00
    0    9    9    -11.56      0.00
    1    9    9      3.24      0.00
    2    9    9     -3.85      0.00
    3    9    9     -3.23      0.00
    4    9    9     -0.39      0.00
    5    9    9      0.45      0.00
    6    9    9     -3.59      0.00
    7    9    9      1.51      0.00
    8    9    9      3.46      0.00
    9    9    9      0.29      0.00
   10    9    9     -4.31      0.00
  -11   10    9     -0.06      0.00
  -10   10    9      0.33      0.00
   -9   10    9     -2.09      0.00
   -8   10    9     -0.82      0.00
   -7   10    9      0.80      0.00
   -6   10    9     -2.04      0.00
   -5   10    9     -3.67      0.00
   -4   10    9      1.05      0.00
   -3   10    9     -1.46      0.00
   -2   10    9     -4.86      0.00
   -1   10    9      1.68      0.00
    0   10    9      6.72      0.00
    1   10    9      0.50      0.00
    2   10    9      5.52      0.00
    3   10    9     -3.99      0.00
    4   10    9     -1.60      0.00
    5   10    9      3.63      0.00
    6   10    9      4.43      0.00
    7   10    9      0.59      0.00
    8   10    9      2.34      0.00
    9   10    9      1.76      0.00
  -10   11    9     -1.66      0.00
   -9   11    9      1.61      0.00
   -8   11    9     -0.36      0.00
   -7   11    9      0.89      0.00
   -6   11    9     -3.77      0.00
   -5   11    9     -0.16      0.00
   -4   11    9     -2.89      0.00
   -3   11    9      0.68      0.00
   -2   11    9     -1.34      0.00
   -1   11    9      5.09      0.00
    0   11    9     -6.72      0.00
    1   11    9     -2.43      0.00
    2   11    9     -5.25      0.00
    3   11    9     -0.25      0.00
    4   11    9      1.05      0.00
    5   11    9      1.35      0.00
    6   11    9     -0.34      0.00
    7   11    9     -1.01      0.00
    8   11    9      1.24      0.00
    9   11    9     -0.98      0.00
  -10   12    9      0.50      0.00
   -9   12    9     -0.65      0.00
   -8   12    9     -0.90      0.00
   -7   12    9      1.47      0.00
   -6   12    9     -1.96      0.00
   -5   12    9     -2.80      0.00
   -4   12    9      6.74      0.00
   -3   12    9      4.05      0.00
   -2   12    9     -5.54      0.00
   -1   12    9      3.69      0.00
    0   12    9      1.54      0.00
    1   12    9     -1.70      0.00
    2   12    9      6.23      0.00
    3   12    9      0.90      0.00
    4   12    9     -2.09      0.00
    5   12    9     -0.59      0.00
    6   12    9      1.65      0.00
    7   12    9      1.79      0.00
    8   12    9     -0.56      0.00
    9   12    9      2.85      0.00
   -9   13    9      0.04      0.00
   -8   13    9      0.16      0.00
   -7   13    9     -1.46      0.00
   -6   13    9      2.20      0.00
   -5   13    9     -0.49      0.00
   -4   13    9     -2.85      0.00
   -3   13    9      1.26      0.00
   -2   13    9     -1.21      0.00
   -1   13    9      1.57      0.00
    0   13    9      2.67      0.00
    1   13    9      0.07      0.00
    2   13    9     -3.90      0.00
    3   13    9      1.54      0.00
    4   13    9      1.72      0.00
    5   13    9      1.19      0.00
    6   13    9      1.05      0.00
    7   13    9     -0.02      0.00
    8   13    9     -0.67      0.00
   -9   14    9     -1.46      0.00
   -8   14    9      1.83      0.00
   -7   14    9      0.70      0.00
   -6   14    9     -1.11      0.00
   -5   14    9     -0.16      0.00
   -4   14    9      4.43      0.00
   -3   14    9      4.29      0.00
   -2   14    9      1.79      0.00
   -1   14    9      1.96      0.00
    0   14    9     -0.45      0.00
    1   14    9     -0.70      0.00
    2   14    9      1.19      0.00
    3   14    9      1.71      0.00
    4   14    9      1.80      0.00
    5   14    9     -1.00      0.00
    6   14    9     -0.05      0.00
    7   14    9      0.19      0.00
    8   14    9     -1.00      0.00
   -8   15    9     -1.24      0.00
   -7   15    9     -3.77      0.00
   -6   15    9      1.83      0.00
   -5   15    9      1.03      0.00
   -4   15    9      0.00      0.00
   -3   15    9      0.04      0.00
   -2   15    9     -2.13      0.00
   -1   15    9     -0.22      0.00
    0   15    9      2.88      0.00
    1   15    9      4.17      0.00
    2   15    9     -1.32      0.00
    3   15    9      0.98      0.00
    4   15    9      0.97      0.00
    5   15    9      0.16      0.00
    6   15    9      0.42      0.00
    7   15    9      1.76      0.00
   -7   16    9      0.42      0.00
   -6   16    9      0.48      0.00
   -5   16    9      2.01      0.00
   -4   16    9     -2.75      0.00
   -3   16    9     -1.53      0.00
   -2   16    9      1.70      0.00
   -1   16    9      2.00      0.00
    0   16    9     -0.74      0.00
    1   16    9      1.67      0.00
    2   16    9     -4.76      0.00
    3   16    9      0.42      0.00
    4   16    9      2.66      0.00
    5   16    9      1.56      0.00
    6   16    9      0.16      0.00
   -6   17    9     -0.87      0.00
   -5   17    9     -1.14      0.00
   -4   17    9      2.83      0.00
   -3   17    9     -0.40      0.00
   -2   17    9      0.87      0.00
   -1   17    9     -0.12      0.00
    0   17    9      0.55      0.00
    1   17    9      1.33      0.00
    2   17    9     -0.45      0.00
    3   17    9     -0.11      0.00
    4   17    9      1.18      0.00
    5   17    9     -0.34      0.00
   -5   18    9      1.97      0.00
   -4   18    9     -2.79      0.00
   -3   18    9     -2.51      0.00
   -2   18    9     -2.13      0.00
   -1   18    9      0.01      0.00
    0   18    9      0.61      0.00
    1   18    9      2.17      0.00
    2   18    9     -3.16      0.00
    3   18    9      0.08      0.00
    4   18    9      1.85      0.00
   -4   19    9      1.03      0.00
   -3   19    9     -0.06      0.00
   -2   19    9      3.17      0.00
   -1   19    9      1.32      0.00
    0   19    9      0.14      0.00
    1   19    9     -0.68      0.00
    2   19    9      0.22      0.00
    3   19    9      1.01      0.00
   -1   20    9     -1.21      0.00
    0   20    9      1.62      0.00
  -10    0   10     -3.37      0.00
   -8    0   10      0.40      0.00
   -6    0   10      4.28      0.00
   -4    0   10     20.71      0.00
   -2    0   10     26.51      0.00
    0    0   10      9.18      0.00
    2    0   10     -4.48      0.00
    4    0   10     12.63      0.00
    6    0   10      1.95      0.00
    8    0   10     -0.84      0.00
  -10    1   10      0.43      0.00
   -9    1   10      0.30      0.00
   -8    1   10     -1.28      0.00
   -7    1   10      3.44      0.00
   -6    1   10     -1.12      0.00
   -5    1   10     -9.89      0.00
   -4    1   10      2.78      0.00
   -3    1   10     -6.70      0.00
   -2    1   10     -5.14      0.00
   -1    1   10     12.63      0.00
    0    1   10     -4.49      0.00
    1    1   10     -6.78      0.00
    2    1   10      4.36      0.00
    3    1   10      0.86      0.00
    4    1   10     -2.27      0.00
    5    1   10      3.06      0.00
    6    1   10     -2.23      0.00
    7    1   10      0.20      0.00
    8    1   10     -0.94      0.00
  -10    2   10     -1.75      0.00
   -9    2   10      0.76      0.00
   -8    2   10     -0.57      0.00
   -7    2   10      4.63      0.00
   -6    2   10      4.81      0.00
   -5    2   10     -4.70      0.00
   -4    2   10     16.30      0.00
   -3    2   10      8.76      0.00
   -2    2   10     13.15      0.00
   -1    2   10     -5.35      0.00
    0    2   10     18.11      0.00
    1    2   10    -23.60      0.00
    2    2   10     -5.54      0.00
    3    2   10      8.01      0.00
    4    2   10      8.93      0.00
    5    2   10     -3.47      0.00
    6    2   10      1.63      0.00
    7    2   10     -3.80      0.00
    8    2   10     -0.75      0.00
    9    2   10     -0.79      0.00
   10    2   10     -2.96      0.00
  -11    3   10      0.19      0.00
  -10    3   10      0.82      0.00
   -9    3   10      3.79      0.00
   -8    3   10     -2.77      0.00
   -7    3   10      0.98      0.00
   -6    3   10      0.15      0.00
   -5    3   10     -6.41      0.00
   -4    3   10      2.43      0.00
   -3    3   10      3.52      0.00
   -2    3   10     -6.51      0.00
   -1    3   10    -10.48      0.00
    0    3   10     -6.05      0.00
    1    3   10     -3.30      0.00
    2    3   10      5.43      0.00
    3    3   10      6.09      0.00
    4    3   10     -0.62      0.00
    5    3   10     -0.97      0.00
    6    3   10     -1.81      0.00
    7    3   10      2.07      0.00
    8    3   10     -0.95      0.00
    9    3   10     -3.17      0.00
   10    3   10      2.19      0.00
   11    3   10      2.10      0.00
  -11    4   10      0.13      0.00
  -10    4   10     -0.86      0.00
   -9    4   10     -0.16      0.00
   -8    4   10     -1.17      0.00
   -7    4   10      5.05      0.00
   -6    4   10      3.97      0.00
   -5    4   10     -1.74      0.00
   -4    4   10      1.77      0.00
   -3    4   10      9.31      0.00
   -2    4   10     -7.51      0.00
   -1    4   10    -11.78      0.00
    0    4   10     24.12      0.00
    1    4   10    -20.58      0.00
    2    4   10     -4.82      0.00
    3    4   10      6.38      0.00
    4    4   10      2.81      0.00
    5    4   10     -4.38      0.00
    6    4   10      0.37      0.00
    7    4   10     -4.14      0.00
    8    4   10     -0.21      0.00
    9    4   10      0.97      0.00
   10    4   10     -2.30      0.00
   11    4   10     -0.43      0.00
  -12    5   10      0.77      0.00
  -11    5   10      0.33      0.00
  -10    5   10      0.25      0.00
   -9    5   10      1.10      0.00
   -8    5   10     -2.35      0.00
   -7    5   10     -2.02      0.00
   -6    5   10      0.36      0.00
   -5    5   10     -3.81      0.00
   -4    5   10     -7.58      0.00
   -3    5   10      7.02      0.00
   -2    5   10      5.87      0.00
   -1    5   10    -25.11      0.00
    0    5   10      1.71      0.00
    1    5   10      0.73      0.00
    2    5   10     -1.33      0.00
    3    5   10      5.67      0.00
    4    5   10      3.54      0.00
    5    5   10     -7.72      0.00
    6    5   10     -1.45      0.00
    7    5   10      3.45      0.00
    8    5   10     -0.15      0.00
    9    5   10     -2.12      0.00
   10    5   10      1.85      0.00
  -11    6   10      1.41      0.00
  -10    6   10      0.75      0.00
   -9    6   10     -1.31      0.00
   -8    6   10      0.13      0.00
   -7    6   10      1.72      0.00
   -6    6   10      0.73      0.00
   -5    6   10      3.48      0.00
   -4    6   10     -4.20      0.00
   -3    6   10      1.33      0.00
   -2    6   10    -10.83      0.00
   -1    6   10    -14.22      0.00
    0    6   10      9.38      0.00
    1    6   10     -6.92      0.00
    2    6   10     -2.70      0.00
    3    6   10     -5.32      0.00
    4    6   10     -0.86      0.00
    5    6   10     -3.05      0.00
    6    6   10     -0.97      0.00
    7    6   10     -0.76      0.00
    8    6   10      1.62      0.00
    9    6   10      0.92      0.00
   10    6   10      0.02      0.00
  -11    7   10      0.75      0.00
  -10    7   10     -0.11      0.00
   -9    7   10     -3.03      0.00
   -8    7   10      0.00      0.00
   -7    7   10     -0.38      0.00
   -6    7   10      0.96      0.00
   -5    7   10     -1.63      0.00
   -4    7   10    -12.56      0.00
   -3    7   10      2.45      0.00
   -2    7   10     10.17      0.00
   -1    7   10    -13.94      0.00
    0    7   10      8.92      0.00
    1    7   10      3.81      0.00
    2    7   10     -3.26      0.00
    3    7   10      0.25      0.00
    4    7   10      5.07      0.00
    5    7   10     -3.56      0.00
    6    7   10     -1.25      0.00
    7    7   10      2.52      0.00
    8    7   10      0.32      0.00
    9    7   10     -0.34      0.00
   10    7   10     -0.80      0.00
  -11    8   10     -1.66      0.00
  -10    8   10      3.43      0.00
   -9    8   10      0.34      0.00
   -8    8   10      1.11      0.00
   -7    8   10      0.85      0.00
   -6    8   10     -4.22      0.00
   -5    8   10      3.33      0.00
   -4    8   10     -3.44      0.00
   -3    8   10     -0.08      0.00
   -2    8   10     -4.62      0.00
   -1    8   10     -5.39      0.00
    0    8   10     -9.00      0.00
    1    8   10      1.70      0.00
    2    8   10     -1.23      0.00
    3    8   10     -7.21      0.00
    4    8   10     -0.43      0.00
    5    8   10     -0.17      0.00
    6    8   10     -2.45      0.00
    7    8   10      2.16      0.00
    8    8   10      3.12      0.00
    9    8   10      0.66      0.00
   10    8   10     -2.76      0.00
  -11    9   10     -0.79      0.00
  -10    9   10      0.03      0.00
   -9    9   10     -2.37      0.00
   -8    9   10      0.44      0.00
   -7    9   10      0.78      0.00
   -6    9   10      0.10      0.00
   -5    9   10     -1.54      0.00
   -4    9   10     -4.24      0.00
   -3    9   10      0.20      0.00
   -2    9   10      1.97      0.00
   -1    9   10     -0.01      0.00
    0    9   10      9.80      0.00
    1    9   10      2.52      0.00
    2    9   10      2.63      0.00
    3    9   10     -5.26      0.00
    4    9   10      2.10      0.00
    5    9   10      2.84      0.00
    6    9   10      3.35      0.00
    7    9   10     -0.05      0.00
    8    9   10      1.48      0.00
    9    9   10      1.29      0.00
   10    9   10     -0.12      0.00
  -10   10   10      1.05      0.00
   -9   10   10      1.44      0.00
   -8   10   10     -1.32      0.00
   -7   10   10      0.92      0.00
   -6   10   10     -6.27      0.00
   -5   10   10      0.60      0.00
   -4   10   10     -3.97      0.00
   -3   10   10      0.89      0.00
   -2   10   10     -3.48      0.00
   -1   10   10      2.82      0.00
    0   10   10    -11.70      0.00
    1   10   10     -0.33      0.00
    2   10   10     -2.41      0.00
    3   10   10     -1.14      0.00
    4   10   10      1.03      0.00
    5   10   10      0.55      0.00
    6   10   10     -0.81      0.00
    7   10   10      1.29      0.00
    8   10   10      1.91      0.00
    9   10   10      0.59      0.00
  -10   11   10     -0.05      0.00
   -9   11   10     -0.44      0.00
   -8   11   10     -0.81      0.00
   -7   11   10      2.47      0.00
   -6   11   10     -0.68      0.00
   -5   11   10     -2.55      0.00
   -4   11   10      4.39      0.00
   -3   11   10      3.03      0.00
   -2   11   10     -5.55      0.00
   -1   11   10      4.03      0.00
    0   11   10      5.57      0.00
    1   11   10     -1.34      0.00
    2   11   10      5.23      0.00
    3   11   10     -2.29      0.00
    4   11   10     -2.63      0.00
    5   11   10      1.15      0.00
    6   11   10      3.45      0.00
    7   11   10      0.26      0.00
    8   11   10     -0.56      0.00
    9   11   10      2.51      0.00
  -10   12   10     -1.29      0.00
   -9   12   10      1.23      0.00
   -8   12   10     -1.39      0.00
   -7   12   10     -1.16      0.00
   -6   12   10     -0.63      0.00
   -5   12   10     -2.49      0.00
   -4   12   10     -4.04      0.00
   -3   12   10      1.75      0.00
   -2   12   10     -1.49      0.00
   -1   12   10      2.07      0.00
    0   12   10     -1.56      0.00
    1   12   10     -1.47      0.00
    2   12   10     -4.05      0.00
    3   12   10      2.05      0.00
    4   12   10      3.11      0.00
    5   12   10      0.43      0.00
    6   12   10      2.02      0.00
    7   12   10     -1.35      0.00
    8   12   10      0.41      0.00
   -9   13   10     -0.41      0.00
   -8   13   10      1.53      0.00
   -7   13   10      1.58      0.00
   -6   13   10      0.17      0.00
   -5   13   10     -0.40      0.00
   -4   13   10      6.43      0.00
   -3   13   10      5.82      0.00
   -2   13   10     -2.47      0.00
   -1   13   10      1.84      0.00
    0   13   10      0.62      0.00
    1   13   10     -0.96      0.00
    2   13   10      3.20      0.00
    3   13   10      1.29      0.00
    4   13   10     -0.26      0.00
    5   13   10     -2.30      0.00
    6   13   10      0.11      0.00
    7   13   10     -0.11      0.00
    8   13   10     -1.66      0.00
   -9   14   10     -0.77      0.00
   -8   14   10     -1.75      0.00
   -7   14   10     -3.45      0.00
   -6   14   10      3.14      0.00
   -5   14   10     -0.06      0.00
   -4   14   10     -3.36      0.00
   -3   14   10      0.41      0.00
   -2   14   10     -1.52      0.00
   -1   14   10      0.98      0.00
    0   14   10      3.64      0.00
    1   14   10      4.01      0.00
    2   14   10     -2.51      0.00
    3   14   10      0.92      0.00
    4   14   10      2.56      0.00
    5   14   10      1.29      0.00
    6   14   10      1.07      0.00
    7   14   10      1.19      0.00
   -8   15   10      2.22      0.00
   -7   15   10      0.72      0.00
   -6   15   10     -0.17      0.00
   -5   15   10      0.30      0.00
   -4   15   10      0.65      0.00
   -3   15   10      1.08      0.00
   -2   15   10      2.82      0.00
   -1   15   10      2.03      0.00
    0   15   10     -1.87      0.00
    1   15   10      0.68      0.00
    2   15   10     -1.94      0.00
    3   15   10      0.43      0.00
    4   15   10      2.64      0.00
    5   15   10      0.26      0.00
    6   15   10      0.33      0.00
    7   15   10     -2.08      0.00
   -7   16   10     -3.49      0.00
   -6   16   10      0.99      0.00
   -5   16   10      0.11      0.00
   -4   16   10      2.16      0.00
   -3   16   10     -0.46      0.00
   -2   16   10     -2.46      0.00
   -1   16   10      0.14      0.00
    0   16   10      1.48      0.00
    1   16   10      4.59      0.00
    2   16   10     -1.39      0.00
    3   16   10     -0.32      0.00
    4   16   10      1.50      0.00
    5   16   10     -0.48      0.00
    6   16   10      0.06      0.00
   -6   17   10      0.80      0.00
   -5   17   10      1.36      0.00
   -4   17   10     -4.13      0.00
   -3   17   10     -3.08      0.00
   -2   17   10     -0.22      0.00
   -1   17   10      3.25      0.00
    0   17   10     -1.70      0.00
    1   17   10      2.75      0.00
    2   17   10     -5.19      0.00
    3   17   10     -0.59      0.00
    4   17   10      2.22      0.00
    5   17   10      0.79      0.00
   -5   18   10     -1.15      0.00
   -4   18   10      3.38      0.00
   -3   18   10      0.11      0.00
   -2   18   10      1.31      0.00
   -1   18   10      0.84      0.00
    0   18   10     -0.36      0.00
    1   18   10      1.80      0.00
    2   18   10     -0.25      0.00
    3   18   10     -0.41      0.00
    4   18   10      0.74      0.00
   -4   19   10     -1.68      0.00
   -3   19   10     -1.80      0.00
   -2   19   10     -1.55      0.00
   -1   19   10      1.32      0.00
    0   19   10      0.04      0.00
    1   19   10      1.17      0.00
    2   19   10     -1.91      0.00
   -9    0   11     -1.34      0.00
   -7    0   11      2.33      0.00
   -5    0   11     -9.87      0.00
   -3    0   11     -8.01      0.00
   -1    0   11     11.51      0.00
    1    0   11     -2.63      0.00
    3    0   11      2.74      0.00
    5    0   11      6.15      0.00
  -10    1   11     -2.15      0.00
   -9    1   11      1.32      0.00
   -8    1   11      0.71      0.00
   -7    1   11      1.61      0.00
   -6    1   11      5.30      0.00
   -5    1   11     -2.53      0.00
   -4    1   11     17.17      0.00
   -3    1   11      4.57      0.00
   -2    1   11     23.17      0.00
   -1    1   11     -7.44      0.00
    0    1   11      3.41      0.00
    1    1   11    -12.15      0.00
    2    1   11     -6.40      0.00
    3    1   11      4.35      0.00
    4    1   11      6.63      0.00
    5    1   11     -1.76      0.00
    6    1   11      0.35      0.00
    7    1   11     -1.05      0.00
    8    1   11      0.56      0.00
  -10    2   11      0.68      0.00
   -9    2   11      1.57      0.00
   -8    2   11     -2.36      0.00
   -7    2   11      1.28      0.00
   -6    2   11      1.60      0.00
   -5    2   11     -6.27      0.00
   -4    2   11      2.36      0.00
   -3    2   11     -2.15      0.00
   -2    2   11     -5.01      0.00
   -1    2   11     -0.69      0.00
    0    2   11     -0.11      0.00
    1    2   11      0.80      0.00
    2    2   11      4.34      0.00
    3    2   11      4.20      0.00
    4    2   11     -3.20      0.00
    5    2   11      4.97      0.00
    6    2   11     -2.68      0.00
    7    2   11      0.45      0.00
    8    2   11     -2.33      0.00
    9    2   11     -1.55      0.00
  -10    3   11     -1.23      0.00
   -9    3   11      2.25      0.00
   -8    3   11     -0.45      0.00
   -7    3   11      3.29      0.00
   -6    3   11      5.46      0.00
   -5    3   11     -4.21      0.00
   -4    3   11      4.24      0.00
   -3    3   11      8.07      0.00
   -2    3   11      7.15      0.00
   -1    3   11    -18.25      0.00
    0    3   11     15.23      0.00
    1    3   11    -21.35      0.00
    2    3   11     -8.08      0.00
    3    3   11      8.14      0.00
    4    3   11      4.58      0.00
    5    3   11     -3.90      0.00
    6    3   11     -0.69      0.00
    7    3   11     -2.71      0.00
    8    3   11      0.42      0.00
    9    3   11     -0.87      0.00
   10    3   11     -3.15      0.00
  -11    4   11      0.19      0.00
  -10    4   11     -0.65      0.00
   -9    4   11      2.97      0.00
   -8    4   11     -2.61      0.00
   -7    4   11     -3.31      0.00
   -6    4   11      1.88      0.00
   -5    4   11     -1.49      0.00
   -4    4   11     -2.40      0.00
   -3    4   11      4.68      0.00
   -2    4   11      4.65      0.00
   -1    4   11    -20.85      0.00
    0    4   11      2.20      0.00
    1    4   11      6.08      0.00
    2    4   11      2.35      0.00
    3    4   11      2.15      0.00
    4    4   11      1.03      0.00
    5    4   11     -2.22      0.00
    6    4   11     -0.96      0.00
    7    4   11      2.53      0.00
    8    4   11     -1.27      0.00
    9    4   11     -2.38      0.00
   10    4   11      3.52      0.00
  -11    5   11      2.05      0.00
  -10    5   11     -0.91      0.00
   -9    5   11     -0.14      0.00
   -8    5   11     -0.70      0.00
   -7    5   11      1.67      0.00
   -6    5   11      2.69      0.00
   -5    5   11      0.66      0.00
   -4    5   11     -8.49      0.00
   -3    5   11     -1.08      0.00
   -2    5   11     -4.27      0.00
   -1    5   11    -20.17      0.00
    0    5   11     12.68      0.00
    1    5   11    -12.66      0.00
    2    5   11     -4.82      0.00
    3    5   11     -1.95      0.00
    4    5   11      2.02      0.00
    5    5   11     -2.40      0.00
    6    5   11     -1.62      0.00
    7    5   11     -1.67      0.00
    8    5   11      0.73      0.00
    9    5   11      1.52      0.00
   10    5   11     -0.78      0.00
  -11    6   11     -0.15      0.00
  -10    6   11     -0.54      0.00
   -9    6   11      0.18      0.00
   -8    6   11     -0.32      0.00
   -7    6   11     -2.50      0.00
   -6    6   11      0.30      0.00
   -5    6   11     -0.54      0.00
   -4    6   11     -8.89      0.00
   -3    6   11      3.52      0.00
   -2    6   11     16.79      0.00
   -1    6   11    -19.07      0.00
    0    6   11      5.22      0.00
    1    6   11      7.24      0.00
    2    6   11     -0.88      0.00
    3    6   11     -1.52      0.00
    4    6   11      4.71      0.00
    5    6   11     -4.84      0.00
    6    6   11     -2.82      0.00
    7    6   11      3.06      0.00
    8    6   11      0.48      0.00
    9    6   11     -0.41      0.00
   10    6   11      1.21      0.00
  -11    7   11      0.44      0.00
  -10    7   11      2.31      0.00
   -9    7   11     -0.18      0.00
   -8    7   11     -0.05      0.00
   -7    7   11     -0.62      0.00
   -6    7   11     -1.75      0.00
   -5    7   11      2.95      0.00
   -4    7   11     -5.67      0.00
   -3    7   11     -6.03      0.00
   -2    7   11     -4.51      0.00
   -1    7   11    -12.23      0.00
    0    7   11     -3.10      0.00
    1    7   11     -1.65      0.00
    2    7   11      0.48      0.00
    3    7   11    -10.11      0.00
    4    7   11      0.18      0.00
    5    7   11      1.18      0.00
    6    7   11     -1.03      0.00
    7    7   11      1.18      0.00
    8    7   11      2.30      0.00
    9    7   11      0.67      0.00
   10    7   11     -0.94      0.00
  -11    8   11     -1.11      0.00
  -10    8   11     -0.12      0.00
   -9    8   11     -0.95      0.00
   -8    8   11      1.54      0.00
   -7    8   11      0.57      0.00
   -6    8   11      1.18      0.00
   -5    8   11      0.04      0.00
   -4    8   11     -7.14      0.00
   -3    8   11      1.13      0.00
   -2    8   11     11.83      0.00
   -1    8   11     -3.34      0.00
    0    8   11      7.59      0.00
    1    8   11      4.22      0.00
    2    8   11      0.51      0.00
    3    8   11     -4.80      0.00
    4    8   11      4.96      0.00
    5    8   11      0.31      0.00
    6    8   11     -0.29      0.00
    7    8   11      0.59      0.00
    8    8   11      1.31      0.00
    9    8   11      1.00      0.00
   10    8   11     -0.73      0.00
  -11    9   11     -1.20      0.00
  -10    9   11      3.02      0.00
   -9    9   11      0.90      0.00
   -8    9   11     -1.15      0.00
   -7    9   11     -0.03      0.00
   -6    9   11     -6.41      0.00
   -5    9   11      1.42      0.00
   -4    9   11     -3.51      0.00
   -3    9   11     -1.82      0.00
   -2    9   11     -4.13      0.00
   -1    9   11     -1.25      0.00
    0    9   11    -12.40      0.00
    1    9   11      1.35      0.00
    2    9   11      1.95      0.00
    3    9   11     -4.31      0.00
    4    9   11      0.44      0.00
    5    9   11      1.68      0.00
    6    9   11     -0.51      0.00
    7    9   11      3.51      0.00
    8    9   11      1.59      0.00
    9    9   11      0.88      0.00
  -10   10   11     -0.76      0.00
   -9   10   11     -0.46      0.00
   -8   10   11      0.23      0.00
   -7   10   11      2.09      0.00
   -6   10   11      0.31      0.00
   -5   10   11     -1.44      0.00
   -4   10   11      0.72      0.00
   -3   10   11      1.53      0.00
   -2   10   11     -0.45      0.00
   -1   10   11      3.30      0.00
    0   10   11      7.45      0.00
    1   10   11     -1.51      0.00
    2   10   11      3.49      0.00
    3   10   11     -4.88      0.00
    4   10   11     -0.56      0.00
    5   10   11      2.16      0.00
    6   10   11      3.46      0.00
    7   10   11     -1.09      0.00
    8   10   11     -0.16      0.00
    9   10   11      1.65      0.00
  -10   11   11     -0.09      0.00
   -9   11   11      1.39      0.00
   -8   11   11     -2.66      0.00
   -7   11   11     -0.58      0.00
   -6   11   11     -3.79      0.00
   -5   11   11     -2.24      0.00
   -4   11   11     -3.77      0.00
   -3   11   11      1.70      0.00
   -2   11   11     -2.80      0.00
   -1   11   11      1.57      0.00
    0   11   11     -6.26      0.00
    1   11   11     -0.86      0.00
    2   11   11     -1.38      0.00
    3   11   11      2.83      0.00
    4   11   11      2.45      0.00
    5   11   11     -0.48      0.00
    6   11   11      1.92      0.00
    7   11   11      0.29      0.00
    8   11   11      0.02      0.00
    9   11   11      0.41      0.00
  -10   12   11     -0.78      0.00
   -9   12   11      0.02      0.00
   -8   12   11      0.98      0.00
   -7   12   11      2.36      0.00
   -6   12   11      1.55      0.00
   -5   12   11     -0.48      0.00
   -4   12   11      5.28      0.00
   -3   12   11      5.02      0.00
   -2   12   11     -4.77      0.00
   -1   12   11      1.53      0.00
    0   12   11      3.32      0.00
    1   12   11     -1.76      0.00
    2   12   11      2.90      0.00
    3   12   11     -0.91      0.00
    4   12   11     -2.54      0.00
    5   12   11     -1.25      0.00
    6   12   11      0.87      0.00
    7   12   11     -0.13      0.00
    8   12   11     -2.36      0.00
   -9   13   11     -0.20      0.00
   -8   13   11     -2.14      0.00
   -7   13   11     -2.36      0.00
   -6   13   11      2.52      0.00
   -5   13   11     -2.05      0.00
   -4   13   11     -4.97      0.00
   -3   13   11      1.50      0.00
   -2   13   11      0.39      0.00
   -1   13   11      1.14      0.00
    0   13   11      2.45      0.00
    1   13   11      2.33      0.00
    2   13   11     -2.52      0.00
    3   13   11      1.91      0.00
    4   13   11      4.03      0.00
    5   13   11      1.36      0.00
    6   13   11      2.61      0.00
    7   13   11     -0.93      0.00
    8   13   11      1.09      0.00
   -8   14   11      2.57      0.00
   -7   14   11      1.11      0.00
   -6   14   11      0.66      0.00
   -5   14   11      0.01      0.00
   -4   14   11      3.63      0.00
   -3   14   11      3.88      0.00
   -2   14   11      0.56      0.00
   -1   14   11     -0.16      0.00
    0   14   11     -1.29      0.00
    1   14   11      0.32      0.00
    2   14   11      1.20      0.00
    3   14   11      0.49      0.00
    4   14   11      1.18      0.00
    5   14   11     -1.31      0.00
    6   14   11     -0.08      0.00
    7   14   11     -2.36      0.00
   -8   15   11     -3.06      0.00
   -7   15   11     -3.64      0.00
   -6   15   11      2.62      0.00
   -5   15   11      0.81      0.00
   -4   15   11     -1.18      0.00
   -3   15   11     -0.78      0.00
   -2   15   11     -2.46      0.00
   -1   15   11      1.30      0.00
    0   15   11      3.21      0.00
    1   15   11      5.52      0.00
    2   15   11     -2.28      0.00
    3   15   11     -0.68      0.00
    4   15   11      1.86      0.00
    5   15   11      1.01      0.00
    6   15   11      0.57      0.00
   -7   16   11      0.21      0.00
   -6   16   11     -0.10      0.00
   -5   16   11     -0.27      0.00
   -4   16   11     -2.32      0.00
   -3   16   11     -1.12      0.00
   -2   16   11      2.14      0.00
   -1   16   11      2.73      0.00
    0   16   11     -3.08      0.00
    1   16   11      2.34      0.00
    2   16   11     -3.08      0.00
    3   16   11     -0.35      0.00
    4   16   11      2.15      0.00
    5   16   11      0.88      0.00
    6   16   11      0.65      0.00
   -6   17   11      0.94      0.00
   -5   17   11     -0.03      0.00
   -4   17   11      4.01      0.00
   -3   17   11     -0.64      0.00
   -2   17   11     -2.32      0.00
   -1   17   11      0.81      0.00
    0   17   11      0.68      0.00
    1   17   11      4.03      0.00
    2   17   11     -1.40      0.00
    3   17   11     -1.39      0.00
    4   17   11      1.10      0.00
    5   17   11     -0.21      0.00
   -5   18   11      0.50      0.00
   -4   18   11     -3.24      0.00
   -3   18   11     -1.93      0.00
   -2   18   11     -0.44      0.00
   -1   18   11      4.07      0.00
    0   18   11     -2.41      0.00
    1   18   11      2.69      0.00
    2   18   11     -3.17      0.00
    3   18   11     -0.90      0.00
    4   18   11      0.96      0.00
   -3   19   11     -0.10      0.00
   -2   19   11      0.66      0.00
   -1   19   11      1.44      0.00
    0   19   11     -0.81      0.00
    1   19   11      1.70      0.00
    2   19   11     -0.10      0.00
  -10    0   12     -0.55      0.00
   -8    0   12      1.22      0.00
   -6    0   12      3.39      0.00
   -4    0   12     13.73      0.00
   -2    0   12     19.52      0.00
    0    0   12     -8.30      0.00
    2    0   12     -4.36      0.00
    4    0   12      0.89      0.00
    6    0   12      0.38      0.00
    8    0   12      1.64      0.00
  -11    1   12     -0.21      0.00
  -10    1   12      0.91      0.00
   -9    1   12     -0.91      0.00
   -8    1   12     -1.13      0.00
   -7    1   12      1.74      0.00
   -6    1   12      1.90      0.00
   -5    1   12     -4.70      0.00
   -4    1   12      1.03      0.00
   -3    1   12     -3.78      0.00
   -2    1   12     -2.71      0.00
   -1    1   12      9.52      0.00
    0    1   12      1.79      0.00
    1    1   12      1.12      0.00
    2    1   12      1.13      0.00
    3    1   12      5.26      0.00
    4    1   12     -2.91      0.00
    5    1   12      7.81      0.00
    6    1   12     -2.15      0.00
    7    1   12     -1.82      0.00
    8    1   12     -1.34      0.00
  -11    2   12     -0.66      0.00
  -10    2   12     -0.33      0.00
   -9    2   12      3.04      0.00
   -8    2   12      0.70      0.00
   -7    2   12      0.52      0.00
   -6    2   12      4.10      0.00
   -5    2   12     -3.56      0.00
   -4    2   12      7.01      0.00
   -3    2   12      6.15      0.00
   -2    2   12     13.59      0.00
   -1    2   12    -17.50      0.00
    0    2   12      0.05      0.00
    1    2   12    -14.16      0.00
    2    2   12     -6.55      0.00
    3    2   12      7.19      0.00
    4    2   12      1.37      0.00
    5    2   12     -2.41      0.00
    6    2   12     -0.11      0.00
    7    2   12     -0.82      0.00
    8    2   12      1.26      0.00
  -11    3   12      0.60      0.00
  -10    3   12     -0.18      0.00
   -9    3   12      1.90      0.00
   -8    3   12     -2.04      0.00
   -7    3   12     -1.96      0.00
   -6    3   12      3.89      0.00
   -5    3   12      1.39      0.00
   -4    3   12     -0.25      0.00
   -3    3   12      1.20      0.00
   -2    3   12      0.57      0.00
   -1    3   12     -7.05      0.00
    0    3   12      2.82      0.00
    1    3   12      7.84      0.00
    2    3   12      1.43      0.00
    3    3   12      2.08      0.00
    4    3   12     -2.75      0.00
    5    3   12      4.10      0.00
    6    3   12     -1.65      0.00
    7    3   12      0.64      0.00
    8    3   12     -2.13      0.00
    9    3   12     -1.88      0.00
  -11    4   12      1.32      0.00
  -10    4   12     -1.03      0.00
   -9    4   12      1.70      0.00
   -8    4   12      0.27      0.00
   -7    4   12      0.42      0.00
   -6    4   12      2.84      0.00
   -5    4   12     -2.37      0.00
   -4    4   12     -8.37      0.00
   -3    4   12     -0.42      0.00
   -2    4   12      3.48      0.00
   -1    4   12    -22.33      0.00
    0    4   12      7.14      0.00
    1    4   12    -13.06      0.00
    2    4   12     -6.16      0.00
    3    4   12      3.22      0.00
    4    4   12      2.10      0.00
    5    4   12     -2.16      0.00
    6    4   12     -2.11      0.00
    7    4   12     -1.01      0.00
    8    4   12      0.38      0.00
    9    4   12      0.17      0.00
   10    4   12     -1.36      0.00
  -11    5   12      0.43      0.00
  -10    5   12     -0.93      0.00
   -9    5   12      1.76      0.00
   -8    5   12     -0.33      0.00
   -7    5   12     -5.10      0.00
   -6    5   12      0.52      0.00
   -5    5   12      2.30      0.00
   -4    5   12     -3.93      0.00
   -3    5   12      1.49      0.00
   -2    5   12     14.72      0.00
   -1    5   12    -16.81      0.00
    0    5   12      0.93      0.00
    1    5   12     10.34      0.00
    2    5   12      0.62      0.00
    3    5   12     -3.84      0.00
    4    5   12      1.45      0.00
    5    5   12     -1.91      0.00
    6    5   12     -1.91      0.00
    7    5   12      2.17      0.00
    8    5   12      0.04      0.00
    9    5   12     -0.60      0.00
   10    5   12      3.03      0.00
  -11    6   12      2.01      0.00
  -10    6   12      0.04      0.00
   -9    6   12     -0.52      0.00
   -8    6   12     -0.50      0.00
   -7    6   12     -1.21      0.00
   -6    6   12      0.14      0.00
   -5    6   12      1.69      0.00
   -4    6   12     -9.75      0.00
   -3    6   12    -10.47      0.00
   -2    6   12     -1.62      0.00
   -1    6   12    -14.58      0.00
    0    6   12      0.66      0.00
    1    6   12     -4.26      0.00
    2    6   12      0.13      0.00
    3    6   12     -8.16      0.00
    4    6   12      0.85      0.00
    5    6   12      2.02      0.00
    6    6   12     -1.34      0.00
    7    6   12     -0.03      0.00
    8    6   12      1.14      0.00
    9    6   12      1.43      0.00
   10    6   12     -0.71      0.00
  -11    7   12     -0.67      0.00
  -10    7   12     -0.13      0.00
   -9    7   12      0.98      0.00
   -8    7   12      2.36      0.00
   -7    7   12     -0.95      0.00
   -6    7   12      0.27      0.00
   -5    7   12      0.70      0.00
   -4    7   12     -5.54      0.00
   -3    7   12      0.11      0.00
   -2    7   12     18.22      0.00
   -1    7   12     -6.76      0.00
    0    7   12      1.17      0.00
    1    7   12      5.91      0.00
    2    7   12     -0.23      0.00
    3    7   12     -4.77      0.00
    4    7   12      4.36      0.00
    5    7   12     -1.22      0.00
    6    7   12     -2.77      0.00
    7    7   12      1.42      0.00
    8    7   12      1.70      0.00
    9    7   12      0.90      0.00
   10    7   12     -0.18      0.00
  -11    8   12      0.04      0.00
  -10    8   12      2.47      0.00
   -9    8   12      0.30      0.00
   -8    8   12     -0.69      0.00
   -7    8   12     -1.43      0.00
   -6    8   12     -4.10      0.00
   -5    8   12      1.74      0.00
   -4    8   12     -2.65      0.00
   -3    8   12     -7.33      0.00
   -2    8   12     -3.06      0.00
   -1    8   12     -3.64      0.00
    0    8   12     -8.84      0.00
    1    8   12      1.77      0.00
    2    8   12      5.17      0.00
    3    8   12     -7.82      0.00
    4    8   12     -0.03      0.00
    5    8   12      4.27      0.00
    6    8   12      0.55      0.00
    7    8   12      2.94      0.00
    8    8   12      1.25      0.00
    9    8   12      0.17      0.00
  -11    9   12     -1.51      0.00
  -10    9   12     -1.06      0.00
   -9    9   12      0.17      0.00
   -8    9   12      1.77      0.00
   -7    9   12      1.12      0.00
   -6    9   12      0.91      0.00
   -5    9   12     -0.49      0.00
   -4    9   12     -1.82      0.00
   -3    9   12     -0.27      0.00
   -2    9   12      6.84      0.00
   -1    9   12      2.18      0.00
    0    9   12      4.46      0.00
    1    9   12     -1.65      0.00
    2    9   12      1.36      0.00
    3    9   12     -4.57      0.00
    4    9   12      2.23      0.00
    5    9   12      1.27      0.00
    6    9   12      1.39      0.00
    7    9   12     -1.53      0.00
    8    9   12      1.09      0.00
    9    9   12      1.26      0.00
  -10   10   12      1.01      0.00
   -9   10   12      0.80      0.00
   -8   10   12     -2.15      0.00
   -7   10   12     -0.40      0.00
   -6   10   12     -5.42      0.00
   -5   10   12     -0.95      0.00
   -4   10   12     -1.69      0.00
   -3   10   12     -0.16      0.00
   -2   10   12     -3.43      0.00
   -1   10   12      1.12      0.00
    0   10   12     -8.68      0.00
    1   10   12      0.80      0.00
    2   10   12      2.91      0.00
    3   10   12      1.43      0.00
    4   10   12      0.52      0.00
    5   10   12      0.51      0.00
    6   10   12      1.16      0.00
    7   10   12      3.29      0.00
    8   10   12     -1.01      0.00
    9   10   12      1.04      0.00
  -10   11   12     -1.76      0.00
   -9   11   12     -0.45      0.00
   -8   11   12      0.69      0.00
   -7   11   12      1.51      0.00
   -6   11   12      1.80      0.00
   -5   11   12     -0.88      0.00
   -4   11   12      2.90      0.00
   -3   11   12      1.92      0.00
   -2   11   12     -2.91      0.00
   -1   11   12      1.10      0.00
    0   11   12      4.98      0.00
    1   11   12     -3.72      0.00
    2   11   12      1.69      0.00
    3   11   12     -2.91      0.00
    4   11   12     -2.80      0.00
    5   11   12      0.78      0.00
    6   11   12      1.46      0.00
    7   11   12     -0.65      0.00
    8   11   12     -1.81      0.00
   -9   12   12      0.32      0.00
   -8   12   12     -2.15      0.00
   -7   12   12     -1.07      0.00
   -6   12   12      0.69      0.00
   -5   12   12     -2.95      0.00
   -4   12   12     -3.75      0.00
   -3   12   12      2.55      0.00
   -2   12   12      1.17      0.00
   -1   12   12      0.58      0.00
    0   12   12     -0.52      0.00
    1   12   12      1.54      0.00
    2   12   12     -0.88      0.00
    3   12   12      4.28      0.00
    4   12   12      3.39      0.00
    5   12   12     -0.19      0.00
    6   12   12      2.62      0.00
    7   12   12     -1.05      0.00
    8   12   12     -0.09      0.00
   -9   13   12      0.44      0.00
   -8   13   12      2.04      0.00
   -7   13   12      0.72      0.00
   -6   13   12      2.21      0.00
   -5   13   12      0.71      0.00
   -4   13   12      3.91      0.00
   -3   13   12      4.19      0.00
   -2   13   12     -2.34      0.00
   -1   13   12     -1.91      0.00
    0   13   12      0.96      0.00
    1   13   12      0.12      0.00
    2   13   12      1.65      0.00
    3   13   12     -0.89      0.00
    4   13   12     -1.41      0.00
    5   13   12     -1.17      0.00
    6   13   12     -0.46      0.00
    7   13   12     -0.62      0.00
   -8   14   12     -3.01      0.00
   -7   14   12     -2.39      0.00
   -6   14   12      3.40      0.00
   -5   14   12      0.30      0.00
   -4   14   12     -4.10      0.00
   -3   14   12     -0.02      0.00
   -2   14   12      1.47      0.00
   -1   14   12      1.46      0.00
    0   14   12      3.46      0.00
    1   14   12      4.39      0.00
    2   14   12     -2.08      0.00
    3   14   12      0.08      0.00
    4   14   12      2.82      0.00
    5   14   12      2.23      0.00
    6   14   12      1.74      0.00
    7   14   12     -0.31      0.00
   -8   15   12      1.13      0.00
   -7   15   12      0.51      0.00
   -6   15   12     -0.24      0.00
   -5   15   12     -0.79      0.00
   -4   15   12      0.82      0.00
   -3   15   12      1.25      0.00
   -2   15   12      1.84      0.00
   -1   15   12     -0.82      0.00
    0   15   12     -2.35      0.00
    1   15   12      1.85      0.00
    2   15   12      0.45      0.00
    3   15   12      0.10      0.00
    4   15   12      1.25      0.00
    5   15   12      0.35      0.00
    6   15   12      1.15      0.00
   -7   16   12     -1.91      0.00
   -6   16   12      1.58      0.00
   -5   16   12      1.29      0.00
   -4   16   12      1.38      0.00
   -3   16   12     -1.59      0.00
   -2   16   12     -2.92      0.00
   -1   16   12      1.38      0.00
    0   16   12      2.37      0.00
    1   16   12      4.38      0.00
    2   16   12     -2.59      0.00
    3   16   12     -1.52      0.00
    4   16   12      0.66      0.00
    5   16   12      0.29      0.00
   -6   17   12     -0.59      0.00
   -5   17   12     -0.11      0.00
   -4   17   12     -2.58      0.00
   -3   17   12     -0.32      0.00
   -2   17   12      1.50      0.00
   -1   17   12      3.56      0.00
    0   17   12     -3.37      0.00
    1   17   12      3.45      0.00
    2   17   12     -1.82      0.00
    3   17   12     -0.48      0.00
    4   17   12      0.63      0.00
   -5   18   12      0.35      0.00
   -4   18   12      3.23      0.00
   -3   18   12     -1.06      0.00
   -2   18   12     -1.87      0.00
   -1   18   12      1.45      0.00
    0   18   12      0.05      0.00
    1   18   12      2.42      0.00
    2   18   12     -0.79      0.00
    3   18   12     -1.29      0.00
   -3   19   12      0.04      0.00
   -2   19   12     -0.21      0.00
   -1   19   12      3.38      0.00
    0   19   12     -2.11      0.00
    1   19   12      1.49      0.00
  -11    0   13     -2.07      0.00
   -9    0   13     -0.76      0.00
   -7    0   13      2.32      0.00
   -5    0   13     -0.91      0.00
   -3    0   13      0.19      0.00
   -1    0   13     14.38      0.00
    1    0   13     -1.87      0.00
    3    0   13      7.17      0.00
    5    0   13      7.27      0.00
    7    0   13     -3.19      0.00
  -11    1   13     -0.15      0.00
  -10    1   13      1.41      0.00
   -9    1   13      1.69      0.00
   -8    1   13      0.64      0.00
   -7    1   13     -0.89      0.00
   -6    1   13      0.81      0.00
   -5    1   13     -1.32      0.00
   -4    1   13      6.52      0.00
   -3    1   13      3.46      0.00
   -2    1   13      8.36      0.00
   -1    1   13     -9.54      0.00
    0    1   13    -10.57      0.00
    1    1   13     -5.17      0.00
    2    1   13     -2.05      0.00
    3    1   13      3.81      0.00
    4    1   13     -3.25      0.00
    5    1   13     -1.00      0.00
    6    1   13      1.42      0.00
    7    1   13     -0.31      0.00
    8    1   13      1.76      0.00
  -11    2   13     -0.69      0.00
  -10    2   13      1.23      0.00
   -9    2   13      0.50      0.00
   -8    2   13     -0.77      0.00
   -7    2   13      0.93      0.00
   -6    2   13      4.32      0.00
   -5    2   13      3.40      0.00
   -4    2   13     -0.47      0.00
   -3    2   13      1.23      0.00
   -2    2   13     -2.81      0.00
   -1    2   13      7.09      0.00
    0    2   13      3.05      0.00
    1    2   13      3.36      0.00
    2    2   13     -0.79      0.00
    3    2   13      4.84      0.00
    4    2   13     -4.18      0.00
    5    2   13      6.41      0.00
    6    2   13     -2.43      0.00
    7    2   13     -1.26      0.00
    8    2   13     -1.08      0.00
    9    2   13     -1.73      0.00
  -11    3   13      0.37      0.00
  -10    3   13      0.50      0.00
   -9    3   13      2.53      0.00
   -8    3   13      1.09      0.00
   -7    3   13     -1.73      0.00
   -6    3   13      0.97      0.00
   -5    3   13     -3.02      0.00
   -4    3   13     -4.54      0.00
   -3    3   13      2.14      0.00
   -2    3   13      5.66      0.00
   -1    3   13    -19.66      0.00
    0    3   13     -1.62      0.00
    1    3   13     -8.81      0.00
    2    3   13     -4.20      0.00
    3    3   13      5.73      0.00
    4    3   13     -0.56      0.00
    5    3   13     -1.76      0.00
    6    3   13     -0.27      0.00
    7    3   13     -0.23      0.00
    8    3   13      0.50      0.00
    9    3   13     -2.73      0.00
  -11    4   13      0.80      0.00
  -10    4   13     -0.28      0.00
   -9    4   13      1.27      0.00
   -8    4   13      0.14      0.00
   -7    4   13     -4.43      0.00
   -6    4   13      2.23      0.00
   -5    4   13      6.20      0.00
   -4    4   13     -1.99      0.00
   -3    4   13     -0.17      0.00
   -2    4   13      6.10      0.00
   -1    4   13     -6.22      0.00
    0    4   13     -1.36      0.00
    1    4   13      9.84      0.00
    2    4   13     -0.43      0.00
    3    4   13     -3.02      0.00
    4    4   13     -2.28      0.00
    5    4   13      2.10      0.00
    6    4   13     -1.46      0.00
    7    4   13      0.69      0.00
    8    4   13     -0.33      0.00
    9    4   13     -0.73      0.00
   10    4   13      2.83      0.00
  -11    5   13      1.80      0.00
  -10    5   13     -0.53      0.00
   -9    5   13     -0.35      0.00
   -8    5   13      0.73      0.00
   -7    5   13     -1.79      0.00
   -6    5   13     -0.19      0.00
   -5    5   13     -0.35      0.00
   -4    5   13    -12.02      0.00
   -3    5   13     -9.36      0.00
   -2    5   13      1.49      0.00
   -1    5   13    -13.28      0.00
    0    5   13     -0.33      0.00
    1    5   13     -4.54      0.00
    2    5   13     -1.10      0.00
    3    5   13     -2.98      0.00
    4    5   13      0.48      0.00
    5    5   13      1.28      0.00
    6    5   13     -1.94      0.00
    7    5   13      0.17      0.00
    8    5   13     -0.07      0.00
    9    5   13      1.50      0.00
   10    5   13     -0.57      0.00
  -11    6   13      0.13      0.00
  -10    6   13      0.35      0.00
   -9    6   13      1.45      0.00
   -8    6   13      2.82      0.00
   -7    6   13     -3.48      0.00
   -6    6   13     -1.41      0.00
   -5    6   13      2.08      0.00
   -4    6   13     -2.23      0.00
   -3    6   13     -2.16      0.00
   -2    6   13     15.71      0.00
   -1    6   13     -6.91      0.00
    0    6   13     -5.77      0.00
    1    6   13      7.35      0.00
    2    6   13     -0.05      0.00
    3    6   13     -5.74      0.00
    4    6   13      0.93      0.00
    5    6   13     -0.04      0.00
    6    6   13     -2.56      0.00
    7    6   13      1.39      0.00
    8    6   13      1.61      0.00
    9    6   13      0.53      0.00
   10    6   13      0.99      0.00
  -11    7   13      1.11      0.00
  -10    7   13      0.77      0.00
   -9    7   13     -0.70      0.00
   -8    7   13     -0.45      0.00
   -7    7   13     -2.18      0.00
   -6    7   13     -1.54      0.00
   -5    7   13      1.65      0.00
   -4    7   13     -3.90      0.00
   -3    7   13    -11.77      0.00
   -2    7   13     -1.76      0.00
   -1    7   13     -2.00      0.00
    0    7   13     -4.48      0.00
    1    7   13      1.34      0.00
    2    7   13      5.28      0.00
    3    7   13     -8.04      0.00
    4    7   13     -0.38      0.00
    5    7   13      5.41      0.00
    6    7   13      0.70      0.00
    7    7   13      0.85      0.00
    8    7   13      0.59      0.00
    9    7   13      0.63      0.00
  -11    8   13     -0.46      0.00
  -10    8   13     -0.76      0.00
   -9    8   13      1.05      0.00
   -8    8   13      3.46      0.00
   -7    8   13      0.31      0.00
   -6    8   13      0.12      0.00
   -5    8   13     -0.52      0.00
   -4    8   13     -1.78      0.00
   -3    8   13     -1.81      0.00
   -2    8   13     11.27      0.00
   -1    8   13      1.14      0.00
    0    8   13     -2.68      0.00
    1    8   13     -0.95      0.00
    2    8   13     -0.39      0.00
    3    8   13     -2.93      0.00
    4    8   13      2.62      0.00
    5    8   13      0.37      0.00
    6    8   13     -0.46      0.00
    7    8   13     -0.79      0.00
    8    8   13      2.16      0.00
    9    8   13      1.37      0.00
  -10    9   13      1.09      0.00
   -9    9   13     -0.02      0.00
   -8    9   13     -0.75      0.00
   -7    9   13     -0.84      0.00
   -6    9   13     -4.51      0.00
   -5    9   13      0.14      0.00
   -4    9   13      1.52      0.00
   -3    9   13     -3.65      0.00
   -2    9   13     -3.23      0.00
   -1    9   13      2.53      0.00
    0    9   13     -7.30      0.00
    1    9   13      2.07      0.00
    2    9   13      6.35      0.00
    3    9   13     -1.88      0.00
    4    9   13     -1.07      0.00
    5    9   13      3.25      0.00
    6    9   13      1.22      0.00
    7    9   13      3.66      0.00
    8    9   13     -1.38      0.00
    9    9   13      0.25      0.00
  -10   10   13     -2.18      0.00
   -9   10   13     -0.85      0.00
   -8   10   13      1.18      0.00
   -7   10   13      0.13      0.00
   -6   10   13      1.27      0.00
   -5   10   13     -1.81      0.00
   -4   10   13      0.96      0.00
   -3   10   13     -1.40      0.00
   -2   10   13      1.05      0.00
   -1   10   13      1.33      0.00
    0   10   13      3.01      0.00
    1   10   13     -5.86      0.00
    2   10   13      0.42      0.00
    3   10   13     -2.03      0.00
    4   10   13     -0.87      0.00
    5   10   13      1.44      0.00
    6   10   13      1.28      0.00
    7   10   13     -1.89      0.00
    8   10   13      0.31      0.00
  -10   11   13     -0.10      0.00
   -9   11   13      0.24      0.00
   -8   11   13     -1.19      0.00
   -7   11   13     -0.25      0.00
   -6   11   13     -1.52      0.00
   -5   11   13     -2.46      0.00
   -4   11   13     -0.10      0.00
   -3   11   13      2.56      0.00
   -2   11   13      0.08      0.00
   -1   11   13      0.86      0.00
    0   11   13     -3.21      0.00
    1   11   13      1.82      0.00
    2   11   13      1.77      0.00
    3   11   13      4.98      0.00
    4   11   13      0.45      0.00
    5   11   13     -1.24      0.00
    6   11   13      0.87      0.00
    7   11   13      1.31      0.00
    8   11   13     -1.92      0.00
   -9   12   13     -0.62      0.00
   -8   12   13      1.01      0.00
   -7   12   13     -0.92      0.00
   -6   12   13      2.97      0.00
   -5   12   13      0.50      0.00
   -4   12   13      2.44      0.00
   -3   12   13      1.39      0.00
   -2   12   13     -2.76      0.00
   -1   12   13     -2.27      0.00
    0   12   13      3.08      0.00
    1   12   13     -1.23      0.00
    2   12   13      0.36      0.00
    3   12   13     -2.27      0.00
    4   12   13     -2.80      0.00
    5   12   13      0.86      0.00
    6   12   13     -0.55      0.00
    7   12   13      0.78      0.00
    8   12   13     -1.80      0.00
   -9   13   13     -1.14      0.00
   -8   13   13     -1.40      0.00
   -7   13   13     -0.82      0.00
   -6   13   13      3.23      0.00
   -5   13   13     -0.68      0.00
   -4   13   13     -3.55      0.00
   -3   13   13      1.61      0.00
   -2   13   13      5.07      0.00
   -1   13   13      0.44      0.00
    0   13   13      1.72      0.00
    1   13   13      3.56      0.00
    2   13   13     -0.88      0.00
    3   13   13      2.55      0.00
    4   13   13      2.89      0.00
    5   13   13      0.99      0.00
    6   13   13      1.66      0.00
    7   13   13     -1.44      0.00
   -8   14   13      0.92      0.00
   -7   14   13     -0.55      0.00
   -6   14   13      0.60      0.00
   -5   14   13      0.51      0.00
   -4   14   13      2.28      0.00
   -3   14   13      1.47      0.00
   -2   14   13     -0.18      0.00
   -1   14   13     -3.31      0.00
    0   14   13     -0.20      0.00
    1   14   13      2.02      0.00
    2   14   13      1.71      0.00
    3   14   13     -1.04      0.00
    4   14   13     -0.37      0.00
    5   14   13      0.31      0.00
    6   14   13      0.83      0.00
   -7   15   13     -1.68      0.00
   -6   15   13      1.97      0.00
   -5   15   13      2.07      0.00
   -4   15   13     -1.99      0.00
   -3   15   13     -1.63      0.00
   -2   15   13      1.18      0.00
   -1   15   13      1.24      0.00
    0   15   13      2.74      0.00
    1   15   13      3.25      0.00
    2   15   13     -2.48      0.00
    3   15   13     -0.93      0.00
    4   15   13      0.75      0.00
    5   15   13      1.45      0.00
    6   15   13      0.55      0.00
   -7   16   13      0.20      0.00
   -6   16   13     -1.22      0.00
   -5   16   13     -0.70      0.00
   -4   16   13     -0.02      0.00
   -3   16   13      0.64      0.00
   -2   16   13      2.08      0.00
   -1   16   13      0.12      0.00
    0   16   13     -2.13      0.00
    1   16   13      3.02      0.00
    2   16   13      0.85      0.00
    3   16   13      0.14      0.00
    4   16   13      0.27      0.00
    5   16   13      1.09      0.00
   -6   17   13      0.68      0.00
   -5   17   13      1.14      0.00
   -4   17   13      1.82      0.00
   -3   17   13     -1.92      0.00
   -2   17   13     -2.44      0.00
   -1   17   13      0.93      0.00
    0   17   13      1.40      0.00
    1   17   13      1.90      0.00
    2   17   13     -1.77      0.00
    3   17   13     -1.03      0.00
    4   17   13     -0.19      0.00
   -4   18   13     -1.22      0.00
   -3   18   13      1.51      0.00
   -2   18   13      0.86      0.00
   -1   18   13      3.58      0.00
    0   18   13     -2.34      0.00
    1   18   13      2.78      0.00
    2   18   13      0.17      0.00
    3   18   13     -0.42      0.00
   -2   19   13     -1.54      0.00
   -1   19   13      1.33      0.00
    0   19   13      0.02      0.00
  -10    0   14      2.33      0.00
   -8    0   14     -0.38      0.00
   -6    0   14     -2.08      0.00
   -4    0   14      3.30      0.00
   -2    0   14     -2.13      0.00
    0    0   14    -10.54      0.00
    2    0   14      1.10      0.00
    4    0   14     -5.29      0.00
    6    0   14      2.44      0.00
    8    0   14      1.55      0.00
  -11    1   14     -2.49      0.00
  -10    1   14      1.54      0.00
   -9    1   14      1.40      0.00
   -8    1   14      0.22      0.00
   -7    1   14      2.83      0.00
   -6    1   14      2.46      0.00
   -5    1   14      4.21      0.00
   -4    1   14     -1.10      0.00
   -3    1   14      5.08      0.00
   -2    1   14     -2.98      0.00
   -1    1   14     12.52      0.00
    0    1   14      1.99      0.00
    1    1   14     -4.83      0.00
    2    1   14     -1.18      0.00
    3    1   14      7.44      0.00
    4    1   14     -2.39      0.00
    5    1   14      4.29      0.00
    6    1   14     -1.50      0.00
    7    1   14     -2.29      0.00
    8    1   14      0.10      0.00
  -11    2   14      0.21      0.00
  -10    2   14      1.80      0.00
   -9    2   14      1.46      0.00
   -8    2   14      0.15      0.00
   -7    2   14     -2.67      0.00
   -6    2   14     -1.59      0.00
   -5    2   14     -1.22      0.00
   -4    2   14     -1.06      0.00
   -3    2   14      3.83      0.00
   -2    2   14      0.34      0.00
   -1    2   14    -12.99      0.00
    0    2   14     -5.79      0.00
    1    2   14     -3.42      0.00
    2    2   14     -0.31      0.00
    3    2   14      4.51      0.00
    4    2   14     -3.10      0.00
    5    2   14     -1.41      0.00
    6    2   14      2.11      0.00
    7    2   14     -0.64      0.00
    8    2   14      0.78      0.00
    9    2   14     -3.66      0.00
  -11    3   14     -0.35      0.00
  -10    3   14      1.19      0.00
   -9    3   14      1.12      0.00
   -8    3   14      0.91      0.00
   -7    3   14     -0.61      0.00
   -6    3   14      3.50      0.00
   -5    3   14      8.52      0.00
   -4    3   14     -3.10      0.00
   -3    3   14      1.42      0.00
   -2    3   14     -2.38      0.00
   -1    3   14      4.62      0.00
    0    3   14     -0.68      0.00
    1    3   14      3.75      0.00
    2    3   14     -2.16      0.00
    3    3   14      0.80      0.00
    4    3   14     -3.86      0.00
    5    3   14      3.11      0.00
    6    3   14     -2.02      0.00
    7    3   14     -0.02      0.00
    8    3   14      0.18      0.00
    9    3   14     -0.94      0.00
  -11    4   14      0.69      0.00
  -10    4   14      0.43      0.00
   -9    4   14     -0.11      0.00
   -8    4   14      1.74      0.00
   -7    4   14     -2.70      0.00
   -6    4   14     -1.96      0.00
   -5    4   14     -1.42      0.00
   -4    4   14     -9.86      0.00
   -3    4   14     -3.78      0.00
   -2    4   14      2.30      0.00
   -1    4   14    -10.86      0.00
    0    4   14     -2.34      0.00
    1    4   14     -2.68      0.00
    2    4   14     -0.83      0.00
    3    4   14      0.95      0.00
    4    4   14     -0.36      0.00
    5    4   14      0.06      0.00
    6    4   14     -0.44      0.00
    7    4   14      0.58      0.00
    8    4   14     -0.61      0.00
    9    4   14     -0.29      0.00
   10    4   14      0.37      0.00
  -11    5   14      0.31      0.00
  -10    5   14      1.30      0.00
   -9    5   14      0.66      0.00
   -8    5   14      2.75      0.00
   -7    5   14     -4.18      0.00
   -6    5   14     -1.70      0.00
   -5    5   14      4.99      0.00
   -4    5   14     -1.51      0.00
   -3    5   14     -3.58      0.00
   -2    5   14      5.88      0.00
   -1    5   14     -2.48      0.00
    0    5   14     -8.82      0.00
    1    5   14      6.75      0.00
    2    5   14     -0.31      0.00
    3    5   14     -5.67      0.00
    4    5   14     -2.36      0.00
    5    5   14      1.51      0.00
    6    5   14     -1.92      0.00
    7    5   14      0.70      0.00
    8    5   14      1.21      0.00
    9    5   14     -0.09      0.00
   10    5   14      1.41      0.00
  -11    6   14      1.12      0.00
  -10    6   14     -0.10      0.00
   -9    6   14     -1.65      0.00
   -8    6   14      0.52      0.00
   -7    6   14     -1.97      0.00
   -6    6   14     -1.21      0.00
   -5    6   14      0.92      0.00
   -4    6   14     -6.61      0.00
   -3    6   14    -11.15      0.00
   -2    6   14     -0.59      0.00
   -1    6   14      1.46      0.00
    0    6   14     -2.57      0.00
    1    6   14      0.44      0.00
    2    6   14      2.94      0.00
    3    6   14     -5.00      0.00
    4    6   14     -0.67      0.00
    5    6   14      3.99      0.00
    6    6   14      0.08      0.00
    7    6   14      0.16      0.00
    8    6   14     -0.54      0.00
    9    6   14      1.85      0.00
  -11    7   14      0.19      0.00
  -10    7   14      0.58      0.00
   -9    7   14      1.07      0.00
   -8    7   14      4.37      0.00
   -7    7   14     -0.76      0.00
   -6    7   14     -2.29      0.00
   -5    7   14     -0.55      0.00
   -4    7   14     -0.16      0.00
   -3    7   14     -3.14      0.00
   -2    7   14      8.82      0.00
   -1    7   14      0.39      0.00
    0    7   14     -9.85      0.00
    1    7   14      0.70      0.00
    2    7   14     -0.56      0.00
    3    7   14     -2.53      0.00
    4    7   14      0.24      0.00
    5    7   14      1.13      0.00
    6    7   14     -0.76      0.00
    7    7   14      0.40      0.00
    8    7   14      2.05      0.00
    9    7   14      0.88      0.00
  -11    8   14      0.85      0.00
  -10    8   14      0.41      0.00
   -9    8   14     -0.98      0.00
   -8    8   14     -0.26      0.00
   -7    8   14     -1.07      0.00
   -6    8   14     -2.04      0.00
   -5    8   14      0.79      0.00
   -4    8   14      2.98      0.00
   -3    8   14     -6.73      0.00
   -2    8   14     -3.18      0.00
   -1    8   14      6.70      0.00
    0    8   14     -3.63      0.00
    1    8   14      2.15      0.00
    2    8   14      6.65      0.00
    3    8   14     -3.61      0.00
    4    8   14     -1.65      0.00
    5    8   14      4.89      0.00
    6    8   14      1.75      0.00
    7    8   14      1.10      0.00
    8    8   14     -1.25      0.00
    9    8   14      0.17      0.00
  -10    9   14     -1.93      0.00
   -9    9   14     -0.50      0.00
   -8    9   14      2.46      0.00
   -7    9   14     -0.02      0.00
   -6    9   14      0.00      0.00
   -5    9   14     -3.09      0.00
   -4    9   14      0.26      0.00
   -3    9   14     -2.50      0.00
   -2    9   14      3.28      0.00
   -1    9   14      2.37      0.00
    0    9   14     -2.50      0.00
    1    9   14     -6.29      0.00
    2    9   14     -0.64      0.00
    3    9   14      0.75      0.00
    4    9   14      0.52      0.00
    5    9   14      0.96      0.00
    6    9   14      1.09      0.00
    7    9   14     -2.26      0.00
    8    9   14      1.98      0.00
    9    9   14      1.16      0.00
  -10   10   14      0.07      0.00
   -9   10   14     -0.48      0.00
   -8   10   14     -0.13      0.00
   -7   10   14      0.07      0.00
   -6   10   14     -2.57      0.00
   -5   10   14     -1.30      0.00
   -4   10   14      4.39      0.00
   -3   10   14      1.35      0.00
   -2   10   14     -2.07      0.00
   -1   10   14      3.16      0.00
    0   10   14     -3.53      0.00
    1   10   14      1.75      0.00
    2   10   14      4.08      0.00
    3   10   14      2.64      0.00
    4   10   14     -2.51      0.00
    5   10   14     -0.14      0.00
    6   10   14     -0.38      0.00
    7   10   14      2.62      0.00
    8   10   14     -2.94      0.00
   -9   11   14     -1.98      0.00
   -8   11   14      0.34      0.00
   -7   11   14     -2.11      0.00
   -6   11   14      2.39      0.00
   -5   11   14     -1.65      0.00
   -4   11   14      0.83      0.00
   -3   11   14     -1.76      0.00
   -2   11   14     -1.31      0.00
   -1   11   14     -1.48      0.00
    0   11   14      3.12      0.00
    1   11   14     -3.78      0.00
    2   11   14     -0.63      0.00
    3   11   14     -0.86      0.00
    4   11   14     -1.79      0.00
    5   11   14      2.41      0.00
    6   11   14     -0.49      0.00
    7   11   14     -0.30      0.00
    8   11   14     -0.04      0.00
   -9   12   14     -0.57      0.00
   -8   12   14      0.64      0.00
   -7   12   14      0.05      0.00
   -6   12   14      1.62      0.00
   -5   12   14     -1.18      0.00
   -4   12   14      0.30      0.00
   -3   12   14      3.23      0.00
   -2   12   14      4.55      0.00
   -1   12   14     -0.06      0.00
    0   12   14     -0.46      0.00
    1   12   14      3.66      0.00
    2   12   14      0.45      0.00
    3   12   14      4.40      0.00
    4   12   14      0.47      0.00
    5   12   14     -1.52      0.00
    6   12   14     -0.28      0.00
    7   12   14     -0.40      0.00
   -8   13   14      0.29      0.00
   -7   13   14     -2.72      0.00
   -6   13   14      1.77      0.00
   -5   13   14      1.65      0.00
   -4   13   14      1.51      0.00
   -3   13   14     -0.39      0.00
   -2   13   14     -1.30      0.00
   -1   13   14     -3.17      0.00
    0   13   14      2.03      0.00
    1   13   14      2.22      0.00
    2   13   14      0.52      0.00
    3   13   14     -2.67      0.00
    4   13   14     -1.33      0.00
    5   13   14      1.61      0.00
    6   13   14     -0.10      0.00
    7   13   14      1.59      0.00
   -8   14   14     -0.94      0.00
   -7   14   14     -0.57      0.00
   -6   14   14      2.24      0.00
   -5   14   14      2.01      0.00
   -4   14   14     -2.54      0.00
   -3   14   14     -0.63      0.00
   -2   14   14      5.85      0.00
   -1   14   14      0.17      0.00
    0   14   14      1.41      0.00
    1   14   14      2.54      0.00
    2   14   14     -1.14      0.00
    3   14   14      0.43      0.00
    4   14   14      1.33      0.00
    5   14   14      1.08      0.00
    6   14   14      0.64      0.00
   -7   15   14     -0.46      0.00
   -6   15   14     -1.41      0.00
   -5   15   14     -0.08      0.00
   -4   15   14      2.14      0.00
   -3   15   14     -0.49      0.00
   -2   15   14      1.01      0.00
   -1   15   14     -2.24      0.00
    0   15   14     -0.06      0.00
    1   15   14      2.47      0.00
    2   15   14      2.31      0.00
    3   15   14     -0.77      0.00
    4   15   14     -0.13      0.00
    5   15   14      1.26      0.00
   -6   16   14      0.32      0.00
   -5   16   14      1.76      0.00
   -4   16   14     -0.48      0.00
   -3   16   14     -2.22      0.00
   -2   16   14      0.23      0.00
   -1   16   14     -0.08      0.00
    0   16   14      1.77      0.00
    1   16   14      0.61      0.00
    2   16   14     -1.85      0.00
    3   16   14     -0.31      0.00
    4   16   14     -0.57      0.00
    5   16   14      0.09      0.00
   -5   17   14      0.23      0.00
   -4   17   14      0.36      0.00
   -3   17   14      1.64      0.00
   -2   17   14      1.83      0.00
   -1   17   14      1.55      0.00
    0   17   14     -1.13      0.00
    1   17   14      2.89      0.00
    2   17   14      1.67      0.00
    3   17   14      0.00      0.00
   -4   18   14      0.60      0.00
   -3   18   14     -1.60      0.00
   -2   18   14     -1.71      0.00
   -1   18   14      0.06      0.00
    0   18   14      0.91      0.00
    1   18   14     -0.26      0.00
    2   18   14     -0.17      0.00
  -11    0   15     -2.49      0.00
   -9    0   15      3.75      0.00
   -7    0   15      3.39      0.00
   -5    0   15      4.37      0.00
   -3    0   15      8.57      0.00
   -1    0   15      8.23      0.00
    1    0   15    -10.53      0.00
    3    0   15      7.75      0.00
    5    0   15      0.46      0.00
    7    0   15     -1.98      0.00
  -11    1   15      0.35      0.00
  -10    1   15      1.46      0.00
   -9    1   15      0.03      0.00
   -8    1   15     -1.02      0.00
   -7    1   15     -1.57      0.00
   -6    1   15     -3.30      0.00
   -5    1   15      0.42      0.00
   -4    1   15      0.38      0.00
   -3    1   15      2.76      0.00
   -2    1   15     -7.52      0.00
   -1    1   15     -5.43      0.00
    0    1   15     -3.00      0.00
    1    1   15     -0.09      0.00
    2    1   15      1.60      0.00
    3    1   15      1.60      0.00
    4    1   15     -3.46      0.00
    5    1   15     -1.10      0.00
    6    1   15      2.34      0.00
    7    1   15     -0.81      0.00
    8    1   15      0.80      0.00
  -11    2   15     -1.60      0.00
  -10    2   15      2.25      0.00
   -9    2   15      2.73      0.00
   -8    2   15      1.15      0.00
   -7    2   15      2.55      0.00
   -6    2   15      2.85      0.00
   -5    2   15      7.43      0.00
   -4    2   15     -4.55      0.00
   -3    2   15      5.30      0.00
   -2    2   15     -5.64      0.00
   -1    2   15      6.98      0.00
    0    2   15      0.72      0.00
    1    2   15     -4.85      0.00
    2    2   15     -2.25      0.00
    3    2   15      4.32      0.00
    4    2   15     -2.70      0.00
    5    2   15      0.93      0.00
    6    2   15     -1.74      0.00
    7    2   15     -0.04      0.00
    8    2   15      0.41      0.00
    9    2   15     -1.48      0.00
   10    2   15      0.19      0.00
  -11    3   15      0.25      0.00
  -10    3   15      0.82      0.00
   -9    3   15     -0.57      0.00
   -8    3   15      0.67      0.00
   -7    3   15     -2.85      0.00
   -6    3   15     -3.15      0.00
   -5    3   15     -0.26      0.00
   -4    3   15     -4.98      0.00
   -3    3   15      1.62      0.00
   -2    3   15     -0.23      0.00
   -1    3   15     -8.39      0.00
    0    3   15     -0.70      0.00
    1    3   15      0.09      0.00
    2    3   15      0.74      0.00
    3    3   15      1.57      0.00
    4    3   15     -0.33      0.00
    5    3   15     -1.08      0.00
    6    3   15      1.59      0.00
    7    3   15     -0.10      0.00
    8    3   15     -0.23      0.00
    9    3   15     -1.58      0.00
  -11    4   15     -0.41      0.00
  -10    4   15      1.90      0.00
   -9    4   15      0.58      0.00
   -8    4   15      2.18      0.00
   -7    4   15     -1.82      0.00
   -6    4   15     -0.56      0.00
   -5    4   15      7.33      0.00
   -4    4   15     -4.28      0.00
   -3    4   15     -2.37      0.00
   -2    4   15     -3.83      0.00
   -1    4   15      2.52      0.00
    0    4   15     -6.76      0.00
    1    4   15      2.86      0.00
    2    4   15     -1.35      0.00
    3    4   15     -3.56      0.00
    4    4   15     -3.39      0.00
    5    4   15      1.01      0.00
    6    4   15     -2.06      0.00
    7    4   15      0.70      0.00
    8    4   15      0.66      0.00
    9    4   15     -0.35      0.00
  -11    5   15      0.41      0.00
  -10    5   15     -0.02      0.00
   -9    5   15     -1.98      0.00
   -8    5   15      1.86      0.00
   -7    5   15     -1.29      0.00
   -6    5   15     -2.66      0.00
   -5    5   15      0.16      0.00
   -4    5   15     -7.17      0.00
   -3    5   15     -5.69      0.00
   -2    5   15      0.93      0.00
   -1    5   15      2.38      0.00
    0    5   15     -1.87      0.00
    1    5   15     -0.12      0.00
    2    5   15      0.84      0.00
    3    5   15     -2.01      0.00
    4    5   15     -0.06      0.00
    5    5   15      1.62      0.00
    6    5   15      0.35      0.00
    7    5   15      0.83      0.00
    8    5   15     -1.20      0.00
    9    5   15      1.77      0.00
  -11    6   15      0.02      0.00
  -10    6   15      2.45      0.00
   -9    6   15      0.27      0.00
   -8    6   15      3.68      0.00
   -7    6   15     -1.67      0.00
   -6    6   15     -4.41      0.00
   -5    6   15      0.78      0.00
   -4    6   15      0.03      0.00
   -3    6   15     -4.44      0.00
   -2    6   15      0.70      0.00
   -1    6   15      0.59      0.00
    0    6   15    -12.43      0.00
    1    6   15      1.97      0.00
    2    6   15      0.25      0.00
    3    6   15     -3.56      0.00
    4    6   15     -2.26      0.00
    5    6   15      1.79      0.00
    6    6   15     -0.73      0.00
    7    6   15      0.90      0.00
    8    6   15      1.19      0.00
    9    6   15     -0.34      0.00
  -11    7   15      0.59      0.00
  -10    7   15     -0.37      0.00
   -9    7   15     -1.61      0.00
   -8    7   15     -0.17      0.00
   -7    7   15     -0.17      0.00
   -6    7   15     -0.72      0.00
   -5    7   15      0.73      0.00
   -4    7   15      1.31      0.00
   -3    7   15     -6.63      0.00
   -2    7   15     -2.85      0.00
   -1    7   15     11.01      0.00
    0    7   15     -1.02      0.00
    1    7   15      0.64      0.00
    2    7   15      3.84      0.00
    3    7   15     -2.38      0.00
    4    7   15     -1.33      0.00
    5    7   15      3.84      0.00
    6    7   15      1.96      0.00
    7    7   15     -0.87      0.00
    8    7   15     -1.30      0.00
    9    7   15      1.39      0.00
  -10    8   15     -0.53      0.00
   -9    8   15      0.01      0.00
   -8    8   15      3.19      0.00
   -7    8   15      0.51      0.00
   -6    8   15     -2.21      0.00
   -5    8   15     -3.80      0.00
   -4    8   15      0.90      0.00
   -3    8   15     -1.83      0.00
   -2    8   15      1.24      0.00
   -1    8   15      2.84      0.00
    0    8   15     -8.20      0.00
    1    8   15     -4.23      0.00
    2    8   15     -0.67      0.00
    3    8   15      2.18      0.00
    4    8   15     -0.19      0.00
    5    8   15      1.01      0.00
    6    8   15      1.40      0.00
    7    8   15     -0.86      0.00
    8    8   15      1.61      0.00
    9    8   15      0.89      0.00
  -10    9   15     -0.05      0.00
   -9    9   15     -1.33      0.00
   -8    9   15     -0.37      0.00
   -7    9   15      0.57      0.00
   -6    9   15     -1.37      0.00
   -5    9   15     -0.43      0.00
   -4    9   15      7.06      0.00
   -3    9   15     -0.32      0.00
   -2    9   15     -4.06      0.00
   -1    9   15      7.36      0.00
    0    9   15     -1.43      0.00
    1    9   15      0.55      0.00
    2    9   15      4.44      0.00
    3    9   15      0.31      0.00
    4    9   15     -3.32      0.00
    5    9   15      1.52      0.00
    6    9   15      0.06      0.00
    7    9   15      0.76      0.00
    8    9   15     -2.67      0.00
  -10   10   15     -1.66      0.00
   -9   10   15     -1.99      0.00
   -8   10   15      0.55      0.00
   -7   10   15     -1.45      0.00
   -6   10   15      0.77      0.00
   -5   10   15     -4.67      0.00
   -4   10   15      0.00      0.00
   -3   10   15     -1.97      0.00
   -2   10   15     -0.57      0.00
   -1   10   15      0.14      0.00
    0   10   15      0.50      0.00
    1   10   15     -5.53      0.00
    2   10   15     -0.89      0.00
    3   10   15      2.73      0.00
    4   10   15     -0.22      0.00
    5   10   15      1.95      0.00
    6   10   15      0.05      0.00
    7   10   15     -2.21      0.00
    8   10   15      1.61      0.00
   -9   11   15     -0.48      0.00
   -8   11   15      1.06      0.00
   -7   11   15      0.39      0.00
   -6   11   15     -0.24      0.00
   -5   11   15     -0.84      0.00
   -4   11   15      4.80      0.00
   -3   11   15      4.15      0.00
   -2   11   15      0.52      0.00
   -1   11   15      0.98      0.00
    0   11   15     -1.28      0.00
    1   11   15      3.05      0.00
    2   11   15      1.24      0.00
    3   11   15      3.55      0.00
    4   11   15     -3.06      0.00
    5   11   15     -2.46      0.00
    6   11   15     -2.14      0.00
    7   11   15      1.07      0.00
   -9   12   15     -1.86      0.00
   -8   12   15     -0.52      0.00
   -7   12   15     -3.67      0.00
   -6   12   15      2.38      0.00
   -5   12   15      0.26      0.00
   -4   12   15     -0.29      0.00
   -3   12   15     -1.81      0.00
   -2   12   15     -0.97      0.00
   -1   12   15     -2.15      0.00
    0   12   15      3.55      0.00
    1   12   15      1.19      0.00
    2   12   15     -0.93      0.00
    3   12   15     -1.60      0.00
    4   12   15     -0.62      0.00
    5   12   15      2.93      0.00
    6   12   15     -1.08      0.00
    7   12   15      1.24      0.00
   -8   13   15      2.01      0.00
   -7   13   15      0.23      0.00
   -6   13   15      1.48      0.00
   -5   13   15      1.46      0.00
   -4   13   15      0.01      0.00
   -3   13   15      1.24      0.00
   -2   13   15      6.33      0.00
   -1   13   15     -0.71      0.00
    0   13   15     -0.35      0.00
    1   13   15      3.26      0.00
    2   13   15      0.04      0.00
    3   13   15      1.86      0.00
    4   13   15      0.49      0.00
    5   13   15     -0.97      0.00
    6   13   15     -0.33      0.00
   -8   14   15     -0.41      0.00
   -7   14   15     -2.15      0.00
   -6   14   15     -0.90      0.00
   -5   14   15      1.38      0.00
   -4   14   15      2.26      0.00
   -3   14   15     -2.01      0.00
   -2   14   15     -0.37      0.00
   -1   14   15     -1.56      0.00
    0   14   15      1.74      0.00
    1   14   15      2.86      0.00
    2   14   15      1.57      0.00
    3   14   15     -2.66      0.00
    4   14   15     -0.33      0.00
    5   14   15      1.69      0.00
    6   14   15      1.68      0.00
   -7   15   15     -0.44      0.00
   -6   15   15      0.19      0.00
   -5   15   15      2.03      0.00
   -4   15   15     -1.30      0.00
   -3   15   15     -1.84      0.00
   -2   15   15      3.43      0.00
   -1   15   15     -1.13      0.00
    0   15   15      0.75      0.00
    1   15   15     -0.47      0.00
    2   15   15     -0.72      0.00
    3   15   15      0.11      0.00
    4   15   15     -0.11      0.00
    5   15   15      0.17      0.00
   -6   16   15     -1.67      0.00
   -5   16   15     -0.14      0.00
   -4   16   15      2.55      0.00
   -3   16   15     -0.26      0.00
   -2   16   15      1.58      0.00
   -1   16   15     -0.33      0.00
    0   16   15      0.40      0.00
    1   16   15      1.92      0.00
    2   16   15      2.73      0.00
    3   16   15     -0.50      0.00
    4   16   15     -0.06      0.00
   -5   17   15      0.40      0.00
   -4   17   15     -0.15      0.00
   -3   17   15     -1.82      0.00
   -2   17   15     -0.48      0.00
   -1   17   15     -1.47      0.00
    0   17   15      1.31      0.00
    1   17   15     -1.26      0.00
    2   17   15     -0.10      0.00
    3   17   15      0.58      0.00
   -3   18   15      1.74      0.00
   -2   18   15      1.02      0.00
   -1   18   15      1.82      0.00
    0   18   15     -0.22      0.00
    1   18   15      1.48      0.00
  -10    0   16     -0.05      0.00
   -8    0   16     -0.96      0.00
   -6    0   16     -3.29      0.00
   -4    0   16      1.05      0.00
   -2    0   16    -10.32      0.00
    0    0   16      3.01      0.00
    2    0   16      0.86      0.00
    4    0   16     -1.80      0.00
    6    0   16      0.84      0.00
    8    0   16      0.58      0.00
  -11    1   16     -1.09      0.00
  -10    1   16      1.80      0.00
   -9    1   16      4.57      0.00
   -8    1   16      0.41      0.00
   -7    1   16      3.35      0.00
   -6    1   16      1.27      0.00
   -5    1   16      3.88      0.00
   -4    1   16     -3.71      0.00
   -3    1   16      7.83      0.00
   -2    1   16     -3.63      0.00
   -1    1   16      0.37      0.00
    0    1   16      0.69      0.00
    1    1   16     -9.96      0.00
    2    1   16     -0.99      0.00
    3    1   16      5.27      0.00
    4    1   16     -0.72      0.00
    5    1   16     -2.17      0.00
    6    1   16     -0.66      0.00
    7    1   16     -0.54      0.00
    8    1   16     -0.04      0.00
    9    1   16     -2.08      0.00
  -11    2   16      0.55      0.00
  -10    2   16     -0.17      0.00
   -9    2   16     -1.04      0.00
   -8    2   16     -0.80      0.00
   -7    2   16     -1.81      0.00
   -6    2   16     -3.00      0.00
   -5    2   16      1.71      0.00
   -4    2   16     -0.69      0.00
   -3    2   16      3.17      0.00
   -2    2   16     -4.25      0.00
   -1    2   16     -5.66      0.00
    0    2   16      3.80      0.00
    1    2   16      2.12      0.00
    2    2   16      1.18      0.00
    3    2   16     -0.03      0.00
    4    2   16      0.30      0.00
    5    2   16     -1.94      0.00
    6    2   16      1.40      0.00
    7    2   16     -0.63      0.00
    8    2   16      0.37      0.00
    9    2   16     -0.69      0.00
  -11    3   16     -0.92      0.00
  -10    3   16      1.89      0.00
   -9    3   16      1.73      0.00
   -8    3   16      0.99      0.00
   -7    3   16      1.10      0.00
   -6    3   16      0.53      0.00
   -5    3   16      6.33      0.00
   -4    3   16     -7.54      0.00
   -3    3   16      0.82      0.00
   -2    3   16     -7.47      0.00
   -1    3   16      2.34      0.00
    0    3   16     -2.85      0.00
    1    3   16     -2.35      0.00
    2    3   16     -1.91      0.00
    3    3   16     -0.81      0.00
    4    3   16     -2.27      0.00
    5    3   16     -0.57      0.00
    6    3   16     -1.76      0.00
    7    3   16      1.40      0.00
    8    3   16     -0.41      0.00
    9    3   16     -0.23      0.00
  -11    4   16      0.00      0.00
  -10    4   16     -0.15      0.00
   -9    4   16     -1.86      0.00
   -8    4   16      1.74      0.00
   -7    4   16     -0.64      0.00
   -6    4   16     -3.33      0.00
   -5    4   16      0.71      0.00
   -4    4   16     -4.20      0.00
   -3    4   16     -0.01      0.00
   -2    4   16      2.10      0.00
   -1    4   16     -0.24      0.00
    0    4   16      0.75      0.00
    1    4   16      0.83      0.00
    2    4   16      0.38      0.00
    3    4   16     -1.20      0.00
    4    4   16      1.65      0.00
    5    4   16     -0.47      0.00
    6    4   16      1.01      0.00
    7    4   16      1.10      0.00
    8    4   16     -0.73      0.00
    9    4   16      0.80      0.00
  -11    5   16     -0.50      0.00
  -10    5   16      2.88      0.00
   -9    5   16     -0.24      0.00
   -8    5   16      1.79      0.00
   -7    5   16     -1.32      0.00
   -6    5   16     -4.45      0.00
   -5    5   16      2.60      0.00
   -4    5   16     -2.92      0.00
   -3    5   16     -4.86      0.00
   -2    5   16     -6.76      0.00
   -1    5   16      1.59      0.00
    0    5   16     -9.64      0.00
    1    5   16      1.62      0.00
    2    5   16      0.21      0.00
    3    5   16     -4.58      0.00
    4    5   16     -2.93      0.00
    5    5   16      0.86      0.00
    6    5   16     -1.11      0.00
    7    5   16      0.93      0.00
    8    5   16     -0.08      0.00
    9    5   16     -0.79      0.00
  -11    6   16      0.21      0.00
  -10    6   16     -0.66      0.00
   -9    6   16     -1.43      0.00
   -8    6   16      0.78      0.00
   -7    6   16      1.54      0.00
   -6    6   16     -1.58      0.00
   -5    6   16      0.15      0.00
   -4    6   16     -0.92      0.00
   -3    6   16     -3.04      0.00
   -2    6   16     -0.88      0.00
   -1    6   16     10.97      0.00
    0    6   16     -0.52      0.00
    1    6   16     -1.38      0.00
    2    6   16      0.51      0.00
    3    6   16     -0.62      0.00
    4    6   16      0.00      0.00
    5    6   16      1.44      0.00
    6    6   16      1.92      0.00
    7    6   16     -0.32      0.00
    8    6   16     -1.38      0.00
    9    6   16      2.11      0.00
  -10    7   16      1.85      0.00
   -9    7   16     -0.04      0.00
   -8    7   16      2.07      0.00
   -7    7   16      0.50      0.00
   -6    7   16     -4.39      0.00
   -5    7   16     -3.05      0.00
   -4    7   16      1.42      0.00
   -3    7   16     -1.93      0.00
   -2    7   16     -4.08      0.00
   -1    7   16      2.18      0.00
    0    7   16    -10.18      0.00
    1    7   16     -1.16      0.00
    2    7   16      0.39      0.00
    3    7   16      0.70      0.00
    4    7   16     -1.40      0.00
    5    7   16      1.29      0.00
    6    7   16      1.44      0.00
    7    7   16      0.80      0.00
    8    7   16      0.14      0.00
    9    7   16     -0.43      0.00
  -10    8   16     -0.76      0.00
   -9    8   16     -1.20      0.00
   -8    8   16     -1.30      0.00
   -7    8   16      1.81      0.00
   -6    8   16      0.30      0.00
   -5    8   16     -0.62      0.00
   -4    8   16      6.35      0.00
   -3    8   16     -0.85      0.00
   -2    8   16     -4.57      0.00
   -1    8   16     11.19      0.00
    0    8   16      0.75      0.00
    1    8   16     -1.61      0.00
    2    8   16      2.46      0.00
    3    8   16      0.56      0.00
    4    8   16     -1.94      0.00
    5    8   16      1.58      0.00
    6    8   16      1.36      0.00
    7    8   16     -1.86      0.00
    8    8   16     -1.71      0.00
  -10    9   16     -0.84      0.00
   -9    9   16     -0.92      0.00
   -8    9   16      0.56      0.00
   -7    9   16     -0.10      0.00
   -6    9   16     -1.09      0.00
   -5    9   16     -6.35      0.00
   -4    9   16      0.53      0.00
   -3    9   16      0.38      0.00
   -2    9   16     -2.04      0.00
   -1    9   16      1.53      0.00
    0    9   16     -3.10      0.00
    1    9   16     -4.51      0.00
    2    9   16     -0.72      0.00
    3    9   16      4.93      0.00
    4    9   16      0.09      0.00
    5    9   16      0.58      0.00
    6    9   16      1.07      0.00
    7    9   16     -2.12      0.00
    8    9   16      1.02      0.00
  -10   10   16      0.29      0.00
   -9   10   16     -0.96      0.00
   -8   10   16     -0.49      0.00
   -7   10   16      0.96      0.00
   -6   10   16      0.01      0.00
   -5   10   16     -0.46      0.00
   -4   10   16      7.28      0.00
   -3   10   16      3.90      0.00
   -2   10   16     -3.52      0.00
   -1   10   16      3.22      0.00
    0   10   16     -0.22      0.00
    1   10   16      0.75      0.00
    2   10   16      1.13      0.00
    3   10   16      1.60      0.00
    4   10   16     -4.41      0.00
    5   10   16     -1.53      0.00
    6   10   16     -2.23      0.00
    7   10   16      0.47      0.00
    8   10   16     -2.23      0.00
   -9   11   16     -2.35      0.00
   -8   11   16     -0.90      0.00
   -7   11   16     -2.51      0.00
   -6   11   16      1.87      0.00
   -5   11   16     -3.41      0.00
   -4   11   16     -1.62      0.00
   -3   11   16     -0.65      0.00
   -2   11   16     -0.44      0.00
   -1   11   16     -1.64      0.00
    0   11   16      3.64      0.00
    1   11   16     -0.68      0.00
    2   11   16     -1.51      0.00
    3   11   16      2.19      0.00
    4   11   16      0.65      0.00
    5   11   16      2.31      0.00
    6   11   16     -1.32      0.00
    7   11   16     -1.20      0.00
   -9   12   16     -0.24      0.00
   -8   12   16      2.60      0.00
   -7   12   16      0.27      0.00
   -6   12   16      0.19      0.00
   -5   12   16      1.15      0.00
   -4   12   16      3.14      0.00
   -3   12   16      3.34      0.00
   -2   12   16      2.57      0.00
   -1   12   16     -0.97      0.00
    0   12   16     -1.06      0.00
    1   12   16      4.07      0.00
    2   12   16      0.09      0.00
    3   12   16      2.17      0.00
    4   12   16     -2.09      0.00
    5   12   16     -2.55      0.00
    6   12   16     -1.63      0.00
    7   12   16      0.50      0.00
   -8   13   16     -0.96      0.00
   -7   13   16     -2.92      0.00
   -6   13   16      0.47      0.00
   -5   13   16      1.59      0.00
   -4   13   16      0.25      0.00
   -3   13   16     -1.71      0.00
   -2   13   16     -0.66      0.00
   -1   13   16     -0.21      0.00
    0   13   16      3.48      0.00
    1   13   16      3.41      0.00
    2   13   16     -0.32      0.00
    3   13   16     -2.48      0.00
    4   13   16      0.22      0.00
    5   13   16      2.09      0.00
    6   13   16      0.21      0.00
   -7   14   16      0.29      0.00
   -6   14   16     -0.20      0.00
   -5   14   16      1.92      0.00
   -4   14   16     -0.43      0.00
   -3   14   16     -0.41      0.00
   -2   14   16      4.05      0.00
   -1   14   16     -1.70      0.00
    0   14   16     -0.84      0.00
    1   14   16      0.10      0.00
    2   14   16      0.51      0.00
    3   14   16      0.40      0.00
    4   14   16      0.23      0.00
    5   14   16     -0.64      0.00
   -7   15   16     -0.40      0.00
   -6   15   16     -2.02      0.00
   -5   15   16      0.29      0.00
   -4   15   16      3.44      0.00
   -3   15   16     -1.74      0.00
   -2   15   16     -0.04      0.00
   -1   15   16      0.05      0.00
    0   15   16      1.54      0.00
    1   15   16      1.45      0.00
    2   15   16      2.32      0.00
    3   15   16     -1.92      0.00
    4   15   16     -0.18      0.00
    5   15   16      0.98      0.00
   -6   16   16     -0.46      0.00
   -5   16   16      0.08      0.00
   -4   16   16     -0.61      0.00
   -3   16   16     -1.30      0.00
   -2   16   16      0.67      0.00
   -1   16   16     -2.46      0.00
    0   16   16      0.57      0.00
    1   16   16     -2.49      0.00
    2   16   16      0.35      0.00
    3   16   16      0.88      0.00
    4   16   16     -0.69      0.00
   -4   17   16      1.91      0.00
   -3   17   16      0.39      0.00
   -2   17   16      1.51      0.00
   -1   17   16      0.65      0.00
    0   17   16      0.25      0.00
    1   17   16      1.24      0.00
    2   17   16      2.22      0.00
   -1   18   16     -1.67      0.00
  -11    0   17      0.47      0.00
   -9    0   17      4.41      0.00
   -7    0   17      2.97      0.00
   -5    0   17      0.39      0.00
   -3    0   17      6.88      0.00
   -1    0   17     -8.16      0.00
    1    0   17     -8.73      0.00
    3    0   17      3.68      0.00
    5    0   17     -4.30      0.00
    7    0   17     -1.19      0.00
    9    0   17     -1.98      0.00
  -11    1   17      0.57      0.00
  -10    1   17     -1.24      0.00
   -9    1   17     -0.56      0.00
   -8    1   17     -0.44      0.00
   -7    1   17     -0.67      0.00
   -6    1   17     -1.65      0.00
   -5    1   17      1.98      0.00
   -4    1   17      1.44      0.00
   -3    1   17      1.44      0.00
   -2    1   17     -5.88      0.00
   -1    1   17     -2.73      0.00
    0    1   17      6.95      0.00
    1    1   17      2.03      0.00
    2    1   17      0.18      0.00
    3    1   17     -1.27      0.00
    4    1   17      0.53      0.00
    5    1   17     -1.58      0.00
    6    1   17     -0.46      0.00
    7    1   17     -0.16      0.00
    8    1   17      0.40      0.00
    9    1   17      0.36      0.00
  -11    2   17     -0.20      0.00
  -10    2   17      1.66      0.00
   -9    2   17      2.57      0.00
   -8    2   17     -0.52      0.00
   -7    2   17      2.23      0.00
   -6    2   17      0.98      0.00
   -5    2   17      2.33      0.00
   -4    2   17     -7.81      0.00
   -3    2   17      3.34      0.00
   -2    2   17     -5.35      0.00
   -1    2   17     -3.93      0.00
    0    2   17     -0.53      0.00
    1    2   17     -5.17      0.00
    2    2   17     -1.31      0.00
    3    2   17      0.92      0.00
    4    2   17     -0.56      0.00
    5    2   17     -2.12      0.00
    6    2   17     -0.75      0.00
    7    2   17      1.04      0.00
    8    2   17     -1.17      0.00
    9    2   17     -0.41      0.00
  -11    3   17      0.24      0.00
  -10    3   17     -0.96      0.00
   -9    3   17     -1.32      0.00
   -8    3   17      0.39      0.00
   -7    3   17     -0.45      0.00
   -6    3   17     -2.16      0.00
   -5    3   17      2.50      0.00
   -4    3   17     -0.39      0.00
   -3    3   17      1.77      0.00
   -2    3   17      1.86      0.00
   -1    3   17     -3.30      0.00
    0    3   17      4.58      0.00
    1    3   17      2.82      0.00
    2    3   17      0.49      0.00
    3    3   17     -2.34      0.00
    4    3   17      2.70      0.00
    5    3   17     -2.08      0.00
    6    3   17      0.47      0.00
    7    3   17      0.91      0.00
    8    3   17      0.12      0.00
    9    3   17      0.54      0.00
  -11    4   17     -0.70      0.00
  -10    4   17      1.26      0.00
   -9    4   17     -0.20      0.00
   -8    4   17     -0.39      0.00
   -7    4   17     -0.18      0.00
   -6    4   17     -2.62      0.00
   -5    4   17      2.52      0.00
   -4    4   17     -6.97      0.00
   -3    4   17     -3.57      0.00
   -2    4   17     -8.28      0.00
   -1    4   17      1.29      0.00
    0    4   17     -5.01      0.00
    1    4   17      0.13      0.00
    2    4   17     -0.86      0.00
    3    4   17     -4.36      0.00
    4    4   17     -2.13      0.00
    5    4   17      0.02      0.00
    6    4   17     -0.94      0.00
    7    4   17      1.32      0.00
    8    4   17     -1.67      0.00
    9    4   17      0.01      0.00
  -11    5   17     -0.11      0.00
  -10    5   17     -0.43      0.00
   -9    5   17     -0.81      0.00
   -8    5   17      1.77      0.00
   -7    5   17      2.49      0.00
   -6    5   17     -2.54      0.00
   -5    5   17      0.16      0.00
   -4    5   17     -0.86      0.00
   -3    5   17      0.59      0.00
   -2    5   17      2.36      0.00
   -1    5   17      5.57      0.00
    0    5   17     -0.17      0.00
    1    5   17     -1.56      0.00
    2    5   17     -1.01      0.00
    3    5   17     -0.52      0.00
    4    5   17      1.87      0.00
    5    5   17     -0.76      0.00
    6    5   17      1.41      0.00
    7    5   17      1.20      0.00
    8    5   17     -1.05      0.00
    9    5   17      1.50      0.00
  -10    6   17      2.93      0.00
   -9    6   17     -0.37      0.00
   -8    6   17     -0.11      0.00
   -7    6   17      0.15      0.00
   -6    6   17     -4.98      0.00
   -5    6   17     -1.44      0.00
   -4    6   17      0.00      0.00
   -3    6   17     -3.34      0.00
   -2    6   17     -8.22      0.00
   -1    6   17      1.75      0.00
    0    6   17     -7.92      0.00
    1    6   17      0.91      0.00
    2    6   17      0.94      0.00
    3    6   17     -2.46      0.00
    4    6   17     -1.65      0.00
    5    6   17      0.98      0.00
    6    6   17      1.04      0.00
    7    6   17      1.18      0.00
    8    6   17     -1.14      0.00
  -10    7   17     -1.14      0.00
   -9    7   17      0.16      0.00
   -8    7   17     -1.29      0.00
   -7    7   17      3.43      0.00
   -6    7   17      0.09      0.00
   -5    7   17     -1.64      0.00
   -4    7   17      3.64      0.00
   -3    7   17      0.58      0.00
   -2    7   17     -2.81      0.00
   -1    7   17     11.14      0.00
    0    7   17      0.92      0.00
    1    7   17     -3.72      0.00
    2    7   17     -0.28      0.00
    3    7   17      1.87      0.00
    4    7   17      0.28      0.00
    5    7   17      0.20      0.00
    6    7   17      2.22      0.00
    7    7   17     -2.06      0.00
    8    7   17     -0.98      0.00
  -10    8   17      0.82      0.00
   -9    8   17     -0.20      0.00
   -8    8   17     -0.75      0.00
   -7    8   17      0.40      0.00
   -6    8   17     -2.23      0.00
   -5    8   17     -5.54      0.00
   -4    8   17      1.82      0.00
   -3    8   17      1.89      0.00
   -2    8   17     -4.82      0.00
   -1    8   17      1.65      0.00
    0    8   17     -4.95      0.00
    1    8   17     -1.36      0.00
    2    8   17     -0.08      0.00
    3    8   17      3.62      0.00
    4    8   17     -0.02      0.00
    5    8   17     -0.19      0.00
    6    8   17      1.70      0.00
    7    8   17     -0.25      0.00
    8    8   17     -0.74      0.00
  -10    9   17     -0.42      0.00
   -9    9   17     -0.73      0.00
   -8    9   17     -2.23      0.00
   -7    9   17      1.95      0.00
   -6    9   17      1.74      0.00
   -5    9   17     -1.15      0.00
   -4    9   17      6.65      0.00
   -3    9   17      3.01      0.00
   -2    9   17     -4.98      0.00
   -1    9   17      5.36      0.00
    0    9   17      1.44      0.00
    1    9   17     -2.19      0.00
    2    9   17      0.14      0.00
    3    9   17      1.10      0.00
    4    9   17     -2.52      0.00
    5    9   17     -0.56      0.00
    6    9   17     -0.85      0.00
    7    9   17     -1.70      0.00
    8    9   17     -1.35      0.00
   -9   10   17     -1.33      0.00
   -8   10   17     -1.27      0.00
   -7   10   17     -1.17      0.00
   -6   10   17      0.75      0.00
   -5   10   17     -6.25      0.00
   -4   10   17     -1.21      0.00
   -3   10   17      2.50      0.00
   -2   10   17     -0.76      0.00
   -1   10   17     -1.35      0.00
    0   10   17      2.08      0.00
    1   10   17     -1.28      0.00
    2   10   17     -1.57      0.00
    3   10   17      5.05      0.00
    4   10   17      1.15      0.00
    5   10   17     -0.05      0.00
    6   10   17     -0.61      0.00
    7   10   17     -2.53      0.00
   -9   11   17      0.13      0.00
   -8   11   17      0.31      0.00
   -7   11   17      0.14      0.00
   -6   11   17      0.69      0.00
   -5   11   17      0.99      0.00
   -4   11   17      4.53      0.00
   -3   11   17      4.26      0.00
   -2   11   17     -1.69      0.00
   -1   11   17     -0.93      0.00
    0   11   17     -0.29      0.00
    1   11   17      3.04      0.00
    2   11   17     -0.74      0.00
    3   11   17      1.33      0.00
    4   11   17     -3.71      0.00
    5   11   17     -2.46      0.00
    6   11   17     -2.19      0.00
    7   11   17      0.74      0.00
   -8   12   17     -1.34      0.00
   -7   12   17     -2.12      0.00
   -6   12   17      1.85      0.00
   -5   12   17     -0.68      0.00
   -4   12   17     -2.14      0.00
   -3   12   17      0.54      0.00
   -2   12   17      0.56      0.00
   -1   12   17     -0.73      0.00
    0   12   17      4.86      0.00
    1   12   17      2.77      0.00
    2   12   17     -1.89      0.00
    3   12   17      0.68      0.00
    4   12   17      1.29      0.00
    5   12   17      1.32      0.00
    6   12   17     -0.92      0.00
   -8   13   17      3.15      0.00
   -7   13   17      0.27      0.00
   -6   13   17     -0.77      0.00
   -5   13   17      1.81      0.00
   -4   13   17      0.81      0.00
   -3   13   17      1.52      0.00
   -2   13   17      2.13      0.00
   -1   13   17     -2.16      0.00
    0   13   17     -1.71      0.00
    1   13   17      2.44      0.00
    2   13   17      0.67      0.00
    3   13   17      0.75      0.00
    4   13   17     -0.77      0.00
    5   13   17     -1.58      0.00
    6   13   17      0.26      0.00
   -7   14   17     -0.72      0.00
   -6   14   17     -1.23      0.00
   -5   14   17      1.16      0.00
   -4   14   17      1.82      0.00
   -3   14   17     -0.86      0.00
   -2   14   17     -1.24      0.00
   -1   14   17      1.59      0.00
    0   14   17      2.61      0.00
    1   14   17      1.95      0.00
    2   14   17      0.47      0.00
    3   14   17     -2.22      0.00
    4   14   17     -0.20      0.00
    5   14   17      0.83      0.00
   -6   15   17     -0.79      0.00
   -5   15   17      0.08      0.00
   -4   15   17     -0.93      0.00
   -3   15   17      0.26      0.00
   -2   15   17      0.62      0.00
   -1   15   17     -2.82      0.00
    0   15   17     -0.97      0.00
    1   15   17     -2.61      0.00
    2   15   17      1.00      0.00
    3   15   17      0.65      0.00
    4   15   17     -0.15      0.00
   -5   16   17     -0.06      0.00
   -4   16   17      2.77      0.00
   -3   16   17     -0.64      0.00
   -2   16   17      0.26      0.00
   -1   16   17      0.22      0.00
    0   16   17      0.81      0.00
    1   16   17      0.56      0.00
    2   16   17      1.96      0.00
    3   16   17     -0.93      0.00
   -3   17   17     -0.67      0.00
   -2   17   17     -0.13      0.00
   -1   17   17     -2.14      0.00
    0   17   17      0.47      0.00
    1   17   17     -2.43      0.00
  -10    0   18     -1.04      0.00
   -8    0   18      0.79      0.00
   -6    0   18      0.86      0.00
   -4    0   18      1.28      0.00
   -2    0   18     -3.43      0.00
    0    0   18      6.86      0.00
    2    0   18      0.09      0.00
    4    0   18      0.54      0.00
    6    0   18     -1.74      0.00
    8    0   18     -0.13      0.00
  -11    1   18      1.01      0.00
  -10    1   18      0.97      0.00
   -9    1   18      1.90      0.00
   -8    1   18     -0.98      0.00
   -7    1   18      1.73      0.00
   -6    1   18      0.82      0.00
   -5    1   18     -1.38      0.00
   -4    1   18     -4.49      0.00
   -3    1   18      3.54      0.00
   -2    1   18     -1.76      0.00
   -1    1   18    -11.28      0.00
    0    1   18     -0.01      0.00
    1    1   18     -3.97      0.00
    2    1   18     -0.46      0.00
    3    1   18      1.03      0.00
    4    1   18      0.20      0.00
    5    1   18     -4.10      0.00
    6    1   18     -0.09      0.00
    7    1   18     -0.46      0.00
    8    1   18     -0.64      0.00
    9    1   18     -0.97      0.00
  -11    2   18      0.63      0.00
  -10    2   18     -1.32      0.00
   -9    2   18     -0.34      0.00
   -8    2   18      0.05      0.00
   -7    2   18     -0.88      0.00
   -6    2   18      0.12      0.00
   -5    2   18      3.60      0.00
   -4    2   18      1.04      0.00
   -3    2   18      0.15      0.00
   -2    2   18      0.81      0.00
   -1    2   18     -3.92      0.00
    0    2   18      6.04      0.00
    1    2   18      3.55      0.00
    2    2   18      0.53      0.00
    3    2   18     -3.81      0.00
    4    2   18      1.91      0.00
    5    2   18     -2.44      0.00
    6    2   18     -0.88      0.00
    7    2   18      0.93      0.00
    8    2   18      0.12      0.00
    9    2   18      0.68      0.00
  -11    3   18     -0.29      0.00
  -10    3   18     -0.35      0.00
   -9    3   18     -0.48      0.00
   -8    3   18     -1.95      0.00
   -7    3   18      0.32      0.00
   -6    3   18     -0.38      0.00
   -5    3   18      0.26      0.00
   -4    3   18     -8.55      0.00
   -3    3   18     -1.49      0.00
   -2    3   18     -4.85      0.00
   -1    3   18     -2.07      0.00
    0    3   18     -1.92      0.00
    1    3   18     -0.85      0.00
    2    3   18     -1.47      0.00
    3    3   18     -2.70      0.00
    4    3   18     -0.98      0.00
    5    3   18     -0.06      0.00
    6    3   18     -0.10      0.00
    7    3   18      1.67      0.00
    8    3   18     -2.22      0.00
    9    3   18      0.70      0.00
  -11    4   18     -0.19      0.00
  -10    4   18     -0.37      0.00
   -9    4   18     -0.27      0.00
   -8    4   18      1.56      0.00
   -7    4   18      1.39      0.00
   -6    4   18     -1.87      0.00
   -5    4   18      1.43      0.00
   -4    4   18      0.65      0.00
   -3    4   18      0.64      0.00
   -2    4   18      4.58      0.00
   -1    4   18     -1.01      0.00
    0    4   18      1.03      0.00
    1    4   18      0.73      0.00
    2    4   18     -0.70      0.00
    3    4   18     -2.24      0.00
    4    4   18      2.50      0.00
    5    4   18     -2.39      0.00
    6    4   18      0.23      0.00
    7    4   18      1.94      0.00
    8    4   18     -0.54      0.00
  -10    5   18      1.05      0.00
   -9    5   18     -0.72      0.00
   -8    5   18     -1.78      0.00
   -7    5   18     -0.03      0.00
   -6    5   18     -3.53      0.00
   -5    5   18     -0.70      0.00
   -4    5   18     -2.92      0.00
   -3    5   18     -4.33      0.00
   -2    5   18     -7.59      0.00
   -1    5   18      2.40      0.00
    0    5   18     -4.48      0.00
    1    5   18      1.34      0.00
    2    5   18     -0.05      0.00
    3    5   18     -4.59      0.00
    4    5   18     -1.50      0.00
    5    5   18      1.25      0.00
    6    5   18      1.17      0.00
    7    5   18      0.90      0.00
    8    5   18     -2.05      0.00
  -10    6   18     -0.24      0.00
   -9    6   18      1.39      0.00
   -8    6   18     -0.18      0.00
   -7    6   18      3.99      0.00
   -6    6   18     -1.30      0.00
   -5    6   18     -2.31      0.00
   -4    6   18      1.72      0.00
   -3    6   18      1.99      0.00
   -2    6   18      0.66      0.00
   -1    6   18      6.21      0.00
    0    6   18     -0.41      0.00
    1    6   18     -4.10      0.00
    2    6   18     -1.77      0.00
    3    6   18      1.80      0.00
    4    6   18      1.77      0.00
    5    6   18     -1.59      0.00
    6    6   18      1.78      0.00
    7    6   18     -0.16      0.00
    8    6   18     -0.82      0.00
  -10    7   18      2.00      0.00
   -9    7   18      0.07      0.00
   -8    7   18     -2.33      0.00
   -7    7   18      0.22      0.00
   -6    7   18     -2.11      0.00
   -5    7   18     -3.27      0.00
   -4    7   18      2.31      0.00
   -3    7   18      0.74      0.00
   -2    7   18     -6.27      0.00
   -1    7   18      1.28      0.00
    0    7   18     -4.20      0.00
    1    7   18      1.45      0.00
    2    7   18      0.56      0.00
    3    7   18     -0.05      0.00
    4    7   18      0.25      0.00
    5    7   18      0.20      0.00
    6    7   18      1.85      0.00
    7    7   18      1.02      0.00
    8    7   18     -1.62      0.00
  -10    8   18     -1.00      0.00
   -9    8   18      0.93      0.00
   -8    8   18     -2.83      0.00
   -7    8   18      2.81      0.00
   -6    8   18      1.96      0.00
   -5    8   18     -2.76      0.00
   -4    8   18      3.82      0.00
   -3    8   18      2.56      0.00
   -2    8   18     -3.67      0.00
   -1    8   18      5.43      0.00
    0    8   18      1.85      0.00
    1    8   18     -4.18      0.00
    2    8   18     -1.03      0.00
    3    8   18      1.89      0.00
    4    8   18      0.53      0.00
    5    8   18     -0.51      0.00
    6    8   18      0.59      0.00
    7    8   18     -2.70      0.00
    8    8   18     -0.24      0.00
   -9    9   18     -0.42      0.00
   -8    9   18     -2.42      0.00
   -7    9   18     -1.04      0.00
   -6    9   18      0.19      0.00
   -5    9   18     -5.70      0.00
   -4    9   18      0.68      0.00
   -3    9   18      4.85      0.00
   -2    9   18     -1.59      0.00
   -1    9   18     -1.02      0.00
    0    9   18      0.08      0.00
    1    9   18      0.42      0.00
    2    9   18     -1.23      0.00
    3    9   18      4.34      0.00
    4    9   18      1.32      0.00
    5    9   18     -1.87      0.00
    6    9   18      0.13      0.00
    7    9   18     -1.51      0.00
   -9   10   18      0.14      0.00
   -8   10   18     -1.95      0.00
   -7   10   18      0.34      0.00
   -6   10   18      2.72      0.00
   -5   10   18      0.16      0.00
   -4   10   18      3.45      0.00
   -3   10   18      3.50      0.00
   -2   10   18     -3.56      0.00
   -1   10   18     -0.69      0.00
    0   10   18      1.08      0.00
    1   10   18      0.35      0.00
    2   10   18     -1.58      0.00
    3   10   18      0.33      0.00
    4   10   18     -2.47      0.00
    5   10   18     -1.42      0.00
    6   10   18     -1.89      0.00
    7   10   18     -0.48      0.00
   -9   11   18     -1.52      0.00
   -8   11   18     -1.39      0.00
   -7   11   18     -1.41      0.00
   -6   11   18      2.08      0.00
   -5   11   18     -3.35      0.00
   -4   11   18     -2.61      0.00
   -3   11   18      3.45      0.00
   -2   11   18      2.22      0.00
   -1   11   18     -2.39      0.00
    0   11   18      4.61      0.00
    1   11   18      1.61      0.00
    2   11   18     -2.49      0.00
    3   11   18      3.80      0.00
    4   11   18      1.97      0.00
    5   11   18     -0.81      0.00
    6   11   18     -1.01      0.00
   -8   12   18      1.49      0.00
   -7   12   18     -0.63      0.00
   -6   12   18      0.06      0.00
   -5   12   18      1.77      0.00
   -4   12   18      1.21      0.00
   -3   12   18      2.25      0.00
   -2   12   18     -0.14      0.00
   -1   12   18     -2.79      0.00
    0   12   18     -1.17      0.00
    1   12   18      4.24      0.00
    2   12   18     -0.30      0.00
    3   12   18      0.67      0.00
    4   12   18     -2.04      0.00
    5   12   18     -1.79      0.00
    6   12   18     -0.36      0.00
   -7   13   18     -0.75      0.00
   -6   13   18      0.83      0.00
   -5   13   18      0.86      0.00
   -4   13   18     -0.98      0.00
   -3   13   18      1.22      0.00
   -2   13   18      0.15      0.00
   -1   13   18      1.59      0.00
    0   13   18      3.57      0.00
    1   13   18      2.14      0.00
    2   13   18     -1.43      0.00
    3   13   18     -0.19      0.00
    4   13   18      0.58      0.00
    5   13   18      0.29      0.00
   -7   14   18      0.37      0.00
   -6   14   18     -1.18      0.00
   -5   14   18      0.48      0.00
   -4   14   18     -1.05      0.00
   -3   14   18      1.74      0.00
   -2   14   18      0.03      0.00
   -1   14   18     -2.93      0.00
    0   14   18     -2.06      0.00
    1   14   18     -0.32      0.00
    2   14   18      1.33      0.00
    3   14   18      0.24      0.00
    4   14   18     -0.25      0.00
   -6   15   18     -1.05      0.00
   -5   15   18      0.52      0.00
   -4   15   18      1.70      0.00
   -3   15   18      0.03      0.00
   -2   15   18     -1.46      0.00
   -1   15   18      1.26      0.00
    0   15   18      1.21      0.00
    1   15   18      0.03      0.00
    2   15   18      0.53      0.00
    3   15   18     -1.30      0.00
   -4   16   18     -1.05      0.00
   -3   16   18      1.23      0.00
   -2   16   18     -0.43      0.00
   -1   16   18     -2.56      0.00
    0   16   18     -1.02      0.00
    1   16   18     -2.72      0.00
    2   16   18      0.80      0.00
   -2   17   18      0.43      0.00
   -1   17   18     -0.14      0.00
    0   17   18     -0.15      0.00
  -11    0   19      1.22      0.00
   -9    0   19      0.03      0.00
   -7    0   19      0.09      0.00
   -5    0   19     -2.27      0.00
   -3    0   19      2.04      0.00
   -1    0   19    -13.72      0.00
    1    0   19     -0.71      0.00
    3    0   19      0.06      0.00
    5    0   19     -5.44      0.00
    7    0   19     -0.68      0.00
  -11    1   19      0.60      0.00
  -10    1   19     -0.21      0.00
   -9    1   19      0.18      0.00
   -8    1   19      1.29      0.00
   -7    1   19     -1.14      0.00
   -6    1   19      3.01      0.00
   -5    1   19      2.52      0.00
   -4    1   19     -0.44      0.00
   -3    1   19     -1.18      0.00
   -2    1   19      0.36      0.00
   -1    1   19     -2.16      0.00
    0    1   19      4.21      0.00
    1    1   19      2.02      0.00
    2    1   19      1.42      0.00
    3    1   19     -3.30      0.00
    4    1   19      0.56      0.00
    5    1   19     -1.28      0.00
    6    1   19     -1.88      0.00
    7    1   19      0.68      0.00
    8    1   19     -0.68      0.00
  -11    2   19      0.31      0.00
  -10    2   19     -0.46      0.00
   -9    2   19     -1.31      0.00
   -8    2   19     -1.88      0.00
   -7    2   19     -0.42      0.00
   -6    2   19      0.88      0.00
   -5    2   19     -1.56      0.00
   -4    2   19     -6.47      0.00
   -3    2   19     -0.19      0.00
   -2    2   19     -1.00      0.00
   -1    2   19     -6.94      0.00
    0    2   19     -0.61      0.00
    1    2   19     -0.31      0.00
    2    2   19     -1.08      0.00
    3    2   19     -0.99      0.00
    4    2   19     -0.27      0.00
    5    2   19     -1.48      0.00
    6    2   19      0.37      0.00
    7    2   19      1.42      0.00
    8    2   19     -0.90      0.00
  -11    3   19      0.18      0.00
  -10    3   19     -0.55      0.00
   -9    3   19      0.04      0.00
   -8    3   19      0.95      0.00
   -7    3   19     -1.13      0.00
   -6    3   19      0.02      0.00
   -5    3   19      2.96      0.00
   -4    3   19      0.68      0.00
   -3    3   19     -2.15      0.00
   -2    3   19      4.28      0.00
   -1    3   19     -4.13      0.00
    0    3   19      1.42      0.00
    1    3   19      2.83      0.00
    2    3   19      0.41      0.00
    3    3   19     -4.76      0.00
    4    3   19      1.29      0.00
    5    3   19     -2.75      0.00
    6    3   19     -0.90      0.00
    7    3   19      1.77      0.00
    8    3   19     -0.55      0.00
  -10    4   19     -1.79      0.00
   -9    4   19     -1.53      0.00
   -8    4   19     -2.22      0.00
   -7    4   19     -0.39      0.00
   -6    4   19     -1.25      0.00
   -5    4   19     -1.22      0.00
   -4    4   19     -4.95      0.00
   -3    4   19     -3.92      0.00
   -2    4   19     -3.41      0.00
   -1    4   19      2.65      0.00
    0    4   19     -2.40      0.00
    1    4   19      0.81      0.00
    2    4   19     -1.35      0.00
    3    4   19     -3.80      0.00
    4    4   19     -1.55      0.00
    5    4   19      2.32      0.00
    6    4   19      1.71      0.00
    7    4   19      1.26      0.00
    8    4   19     -2.04      0.00
  -10    5   19      0.83      0.00
   -9    5   19      1.17      0.00
   -8    5   19      0.84      0.00
   -7    5   19      2.20      0.00
   -6    5   19     -1.85      0.00
   -5    5   19     -1.75      0.00
   -4    5   19      1.44      0.00
   -3    5   19      0.60      0.00
   -2    5   19      3.71      0.00
   -1    5   19     -0.20      0.00
    0    5   19     -1.70      0.00
    1    5   19     -1.96      0.00
    2    5   19     -1.53      0.00
    3    5   19     -0.25      0.00
    4    5   19      1.37      0.00
    5    5   19     -3.12      0.00
    6    5   19      0.32      0.00
    7    5   19      1.43      0.00
    8    5   19     -0.91      0.00
  -10    6   19      1.01      0.00
   -9    6   19      0.41      0.00
   -8    6   19     -2.56      0.00
   -7    6   19      0.15      0.00
   -6    6   19     -0.99      0.00
   -5    6   19     -1.64      0.00
   -4    6   19      1.43      0.00
   -3    6   19     -1.66      0.00
   -2    6   19     -4.76      0.00
   -1    6   19      2.40      0.00
    0    6   19     -2.69      0.00
    1    6   19      2.24      0.00
    2    6   19      0.27      0.00
    3    6   19     -3.03      0.00
    4    6   19     -0.04      0.00
    5    6   19      1.93      0.00
    6    6   19      2.42      0.00
    7    6   19      0.83      0.00
    8    6   19     -1.44      0.00
  -10    7   19     -0.05      0.00
   -9    7   19      2.46      0.00
   -8    7   19     -2.42      0.00
   -7    7   19      2.78      0.00
   -6    7   19      0.29      0.00
   -5    7   19     -4.10      0.00
   -4    7   19      1.04      0.00
   -3    7   19      2.24      0.00
   -2    7   19     -0.72      0.00
   -1    7   19      2.57      0.00
    0    7   19      0.58      0.00
    1    7   19     -4.38      0.00
    2    7   19     -1.56      0.00
    3    7   19      2.31      0.00
    4    7   19      2.04      0.00
    5    7   19     -1.43      0.00
    6    7   19      0.94      0.00
    7    7   19     -1.51      0.00
   -9    8   19      0.13      0.00
   -8    8   19     -3.33      0.00
   -7    8   19     -1.34      0.00
   -6    8   19      0.72      0.00
   -5    8   19     -2.68      0.00
   -4    8   19      2.53      0.00
   -3    8   19      4.43      0.00
   -2    8   19     -1.54      0.00
   -1    8   19     -0.77      0.00
    0    8   19     -0.88      0.00
    1    8   19      2.81      0.00
    2    8   19     -0.44      0.00
    3    8   19      1.11      0.00
    4    8   19      1.64      0.00
    5    8   19     -1.32      0.00
    6    8   19      0.53      0.00
    7    8   19      0.12      0.00
   -9    9   19      0.80      0.00
   -8    9   19     -2.66      0.00
   -7    9   19      0.68      0.00
   -6    9   19      3.20      0.00
   -5    9   19     -1.40      0.00
   -4    9   19      0.62      0.00
   -3    9   19      2.11      0.00
   -2    9   19     -2.84      0.00
   -1    9   19     -0.73      0.00
    0    9   19      1.67      0.00
    1    9   19     -2.07      0.00
    2    9   19     -1.72      0.00
    3    9   19      0.06      0.00
    4    9   19      0.21      0.00
    5    9   19     -0.38      0.00
    6    9   19     -1.18      0.00
    7    9   19     -1.84      0.00
   -9   10   19     -0.72      0.00
   -8   10   19     -1.96      0.00
   -7   10   19     -1.67      0.00
   -6   10   19      1.28      0.00
   -5   10   19     -3.19      0.00
   -4   10   19     -0.83      0.00
   -3   10   19      5.55      0.00
   -2   10   19      3.05      0.00
   -1   10   19     -3.19      0.00
    0   10   19      2.71      0.00
    1   10   19      1.78      0.00
    2   10   19     -2.08      0.00
    3   10   19      3.97      0.00
    4   10   19      2.07      0.00
    5   10   19     -2.71      0.00
    6   10   19     -0.72      0.00
   -8   11   19     -0.70      0.00
   -7   11   19     -1.24      0.00
   -6   11   19      2.10      0.00
   -5   11   19      1.35      0.00
   -4   11   19      0.12      0.00
   -3   11   19      1.26      0.00
   -2   11   19     -1.22      0.00
   -1   11   19     -3.06      0.00
    0   11   19      0.10      0.00
    1   11   19      3.46      0.00
    2   11   19     -1.42      0.00
    3   11   19     -0.32      0.00
    4   11   19     -1.93      0.00
    5   11   19     -1.18      0.00
    6   11   19     -1.12      0.00
   -8   12   19     -0.63      0.00
   -7   12   19     -1.01      0.00
   -6   12   19      2.14      0.00
   -5   12   19     -0.39      0.00
   -4   12   19     -2.13      0.00
   -3   12   19      2.91      0.00
   -2   12   19      3.36      0.00
   -1   12   19     -0.43      0.00
    0   12   19      3.46      0.00
    1   12   19      1.46      0.00
    2   12   19     -1.98      0.00
    3   12   19      2.49      0.00
    4   12   19      1.67      0.00
    5   12   19     -0.83      0.00
   -7   13   19     -0.67      0.00
   -6   13   19     -0.81      0.00
   -5   13   19      0.82      0.00
   -4   13   19     -0.79      0.00
   -3   13   19      1.28      0.00
   -2   13   19     -0.19      0.00
   -1   13   19     -2.69      0.00
    0   13   19     -1.62      0.00
    1   13   19      2.91      0.00
    2   13   19      0.85      0.00
    3   13   19     -0.24      0.00
    4   13   19     -1.04      0.00
    5   13   19     -0.84      0.00
   -6   14   19      0.00      0.00
   -5   14   19      0.99      0.00
   -4   14   19     -0.27      0.00
   -3   14   19      1.21      0.00
   -2   14   19     -0.93      0.00
   -1   14   19      2.31      0.00
    0   14   19      1.11      0.00
    1   14   19     -0.39      0.00
    2   14   19     -0.67      0.00
    3   14   19     -0.30      0.00
    4   14   19     -0.33      0.00
   -5   15   19     -0.38      0.00
   -4   15   19     -1.76      0.00
   -3   15   19      2.70      0.00
   -2   15   19     -0.85      0.00
   -1   15   19     -2.79      0.00
    0   15   19     -1.92      0.00
    1   15   19     -1.42      0.00
    2   15   19      0.91      0.00
    3   15   19      0.29      0.00
   -4   16   19      0.06      0.00
   -3   16   19     -0.22      0.00
   -2   16   19     -0.70      0.00
   -1   16   19      0.10      0.00
    0   16   19      0.06      0.00
    1   16   19     -0.37      0.00
  -10    0   20      1.33      0.00
   -8    0   20      2.55      0.00
   -6    0   20      5.22      0.00
   -4    0   20     -2.94      0.00
   -2    0   20      0.24      0.00
    0    0   20      1.11      0.00
    2    0   20      3.08      0.00
    4    0   20     -0.11      0.00
    6    0   20     -2.39      0.00
    8    0   20     -1.17      0.00
  -10    1   20      0.02      0.00
   -9    1   20     -2.14      0.00
   -8    1   20     -0.46      0.00
   -7    1   20     -2.10      0.00
   -6    1   20      0.68      0.00
   -5    1   20     -0.84      0.00
   -4    1   20     -2.75      0.00
   -3    1   20     -0.06      0.00
   -2    1   20      0.60      0.00
   -1    1   20     -9.27      0.00
    0    1   20     -0.10      0.00
    1    1   20      1.36      0.00
    2    1   20     -0.51      0.00
    3    1   20     -0.57      0.00
    4    1   20     -0.12      0.00
    5    1   20     -3.97      0.00
    6    1   20      0.28      0.00
    7    1   20      1.23      0.00
    8    1   20      0.39      0.00
  -10    2   20      0.08      0.00
   -9    2   20     -0.18      0.00
   -8    2   20      1.39      0.00
   -7    2   20     -2.89      0.00
   -6    2   20      2.34      0.00
   -5    2   20      3.12      0.00
   -4    2   20     -1.50      0.00
   -3    2   20     -3.99      0.00
   -2    2   20      2.04      0.00
   -1    2   20     -3.17      0.00
    0    2   20     -0.01      0.00
    1    2   20      2.35      0.00
    2    2   20      2.02      0.00
    3    2   20     -5.87      0.00
    4    2   20     -0.10      0.00
    5    2   20     -1.57      0.00
    6    2   20     -1.67      0.00
    7    2   20      1.08      0.00
    8    2   20     -0.95      0.00
  -10    3   20     -2.40      0.00
   -9    3   20     -2.75      0.00
   -8    3   20     -1.23      0.00
   -7    3   20     -1.42      0.00
   -6    3   20      0.19      0.00
   -5    3   20     -1.28      0.00
   -4    3   20     -4.60      0.00
   -3    3   20     -2.84      0.00
   -2    3   20      0.42      0.00
   -1    3   20      1.02      0.00
    0    3   20     -1.44      0.00
    1    3   20      0.38      0.00
    2    3   20     -1.56      0.00
    3    3   20     -1.36      0.00
    4    3   20     -1.49      0.00
    5    3   20      1.83      0.00
    6    3   20      1.53      0.00
    7    3   20      2.33      0.00
    8    3   20     -0.64      0.00
  -10    4   20      0.62      0.00
   -9    4   20     -0.20      0.00
   -8    4   20      1.16      0.00
   -7    4   20     -1.17      0.00
   -6    4   20     -1.37      0.00
   -5    4   20     -0.30      0.00
   -4    4   20      1.18      0.00
   -3    4   20     -3.14      0.00
   -2    4   20      4.00      0.00
   -1    4   20     -3.58      0.00
    0    4   20     -2.68      0.00
    1    4   20      0.70      0.00
    2    4   20     -0.31      0.00
    3    4   20     -3.54      0.00
    4    4   20     -0.38      0.00
    5    4   20     -3.27      0.00
    6    4   20     -0.91      0.00
    7    4   20      1.57      0.00
    8    4   20     -0.92      0.00
  -10    5   20     -1.32      0.00
   -9    5   20      0.16      0.00
   -8    5   20     -1.62      0.00
   -7    5   20      0.11      0.00
   -6    5   20      0.22      0.00
   -5    5   20     -1.37      0.00
   -4    5   20      0.00      0.00
   -3    5   20     -3.18      0.00
   -2    5   20     -1.65      0.00
   -1    5   20      5.02      0.00
    0    5   20     -2.15      0.00
    1    5   20      1.12      0.00
    2    5   20     -0.67      0.00
    3    5   20     -2.89      0.00
    4    5   20     -1.33      0.00
    5    5   20      3.94      0.00
    6    5   20      3.02      0.00
    7    5   20      0.56      0.00
    8    5   20     -0.93      0.00
  -10    6   20      1.45      0.00
   -9    6   20      1.90      0.00
   -8    6   20     -1.36      0.00
   -7    6   20      1.31      0.00
   -6    6   20     -1.11      0.00
   -5    6   20     -4.38      0.00
   -4    6   20      0.14      0.00
   -3    6   20      0.55      0.00
   -2    6   20      2.06      0.00
   -1    6   20     -1.32      0.00
    0    6   20     -1.36      0.00
    1    6   20     -2.78      0.00
    2    6   20     -1.22      0.00
    3    6   20      1.27      0.00
    4    6   20      1.06      0.00
    5    6   20     -2.95      0.00
    6    6   20      0.20      0.00
    7    6   20      0.25      0.00
   -9    7   20      1.20      0.00
   -8    7   20     -2.57      0.00
   -7    7   20     -1.07      0.00
   -6    7   20      1.87      0.00
   -5    7   20     -0.23      0.00
   -4    7   20      3.26      0.00
   -3    7   20      1.85      0.00
   -2    7   20     -0.29      0.00
   -1    7   20      0.45      0.00
    0    7   20     -1.00      0.00
    1    7   20      3.43      0.00
    2    7   20      0.13      0.00
    3    7   20     -1.63      0.00
    4    7   20      1.13      0.00
    5    7   20      1.46      0.00
    6    7   20      1.31      0.00
    7    7   20      0.58      0.00
   -9    8   20      1.72      0.00
   -8    8   20     -2.69      0.00
   -7    8   20      0.67      0.00
   -6    8   20      1.39      0.00
   -5    8   20     -2.88      0.00
   -4    8   20     -2.18      0.00
   -3    8   20      0.88      0.00
   -2    8   20     -0.68      0.00
   -1    8   20     -1.75      0.00
    0    8   20      1.02      0.00
    1    8   20     -2.77      0.00
    2    8   20     -1.13      0.00
    3    8   20      0.84      0.00
    4    8   20      1.73      0.00
    5    8   20     -0.17      0.00
    6    8   20     -0.49      0.00
    7    8   20     -1.78      0.00
   -9    9   20     -0.20      0.00
   -8    9   20     -2.58      0.00
   -7    9   20     -2.03      0.00
   -6    9   20      0.72      0.00
   -5    9   20     -0.29      0.00
   -4    9   20      1.47      0.00
   -3    9   20      5.58      0.00
   -2    9   20      3.32      0.00
   -1    9   20     -2.81      0.00
    0    9   20      0.78      0.00
    1    9   20      3.25      0.00
    2    9   20     -1.00      0.00
    3    9   20      1.61      0.00
    4    9   20      1.84      0.00
    5    9   20     -2.51      0.00
    6    9   20     -0.66      0.00
   -8   10   20     -1.45      0.00
   -7   10   20     -0.88      0.00
   -6   10   20      2.68      0.00
   -5   10   20      0.41      0.00
   -4   10   20     -2.14      0.00
   -3   10   20     -0.14      0.00
   -2   10   20     -0.80      0.00
   -1   10   20     -2.84      0.00
    0   10   20      0.72      0.00
    1   10   20      0.89      0.00
    2   10   20     -1.51      0.00
    3   10   20     -1.33      0.00
    4   10   20     -0.70      0.00
    5   10   20      0.00      0.00
    6   10   20     -1.59      0.00
   -8   11   20     -0.52      0.00
   -7   11   20     -1.19      0.00
   -6   11   20      1.18      0.00
   -5   11   20     -0.25      0.00
   -4   11   20     -0.86      0.00
   -3   11   20      3.99      0.00
   -2   11   20      5.38      0.00
   -1   11   20     -2.50      0.00
    0   11   20      2.05      0.00
    1   11   20      1.18      0.00
    2   11   20     -1.20      0.00
    3   11   20      3.37      0.00
    4   11   20      1.90      0.00
    5   11   20     -1.96      0.00
   -7   12   20     -1.64      0.00
   -6   12   20      0.38      0.00
   -5   12   20      0.67      0.00
   -4   12   20     -0.92      0.00
   -3   12   20     -0.73      0.00
   -2   12   20      0.06      0.00
   -1   12   20     -1.74      0.00
    0   12   20     -0.23      0.00
    1   12   20      4.07      0.00
    2   12   20     -0.15      0.00
    3   12   20     -1.03      0.00
    4   12   20     -1.61      0.00
    5   12   20     -0.55      0.00
   -7   13   20     -0.77      0.00
   -6   13   20      1.33      0.00
   -5   13   20      0.76      0.00
   -4   13   20     -0.81      0.00
   -3   13   20      1.61      0.00
   -2   13   20      1.87      0.00
   -1   13   20      1.66      0.00
    0   13   20      0.48      0.00
    1   13   20     -0.69      0.00
    2   13   20     -0.34      0.00
    3   13   20      1.45      0.00
    4   13   20      0.83      0.00
   -6   14   20     -0.98      0.00
   -5   14   20     -0.15      0.00
   -4   14   20     -1.31      0.00
   -3   14   20      1.78      0.00
   -2   14   20     -0.79      0.00
   -1   14   20     -1.87      0.00
    0   14   20     -1.08      0.00
    1   14   20      0.76      0.00
    2   14   20      0.91      0.00
    3   14   20     -0.95      0.00
   -4   15   20     -0.80      0.00
   -3   15   20      0.38      0.00
   -2   15   20     -0.90      0.00
   -1   15   20      1.12      0.00
    0   15   20     -0.45      0.00
    1   15   20     -1.70      0.00
    2   15   20     -0.31      0.00
   -2   16   20      0.17      0.00
   -1   16   20     -1.50      0.00
    0   16   20     -1.59      0.00
   -9    0   21     -2.82      0.00
   -7    0   21     -3.62      0.00
   -5    0   21      1.35      0.00
   -3    0   21     -0.51      0.00
   -1    0   21     -6.62      0.00
    1    0   21      2.58      0.00
    3    0   21     -0.69      0.00
    5    0   21     -4.20      0.00
    7    0   21      1.70      0.00
  -10    1   21      1.49      0.00
   -9    1   21     -0.63      0.00
   -8    1   21      2.63      0.00
   -7    1   21     -2.29      0.00
   -6    1   21      4.21      0.00
   -5    1   21      1.63      0.00
   -4    1   21     -3.98      0.00
   -3    1   21     -2.92      0.00
   -2    1   21     -0.83      0.00
   -1    1   21     -0.89      0.00
    0    1   21     -1.90      0.00
    1    1   21      0.60      0.00
    2    1   21      3.58      0.00
    3    1   21     -3.82      0.00
    4    1   21     -0.69      0.00
    5    1   21     -0.22      0.00
    6    1   21     -2.33      0.00
    7    1   21      0.33      0.00
    8    1   21     -0.78      0.00
  -10    2   21     -0.79      0.00
   -9    2   21     -3.46      0.00
   -8    2   21      0.64      0.00
   -7    2   21     -2.79      0.00
   -6    2   21      0.20      0.00
   -5    2   21      0.39      0.00
   -4    2   21     -2.64      0.00
   -3    2   21     -1.83      0.00
   -2    2   21      1.98      0.00
   -1    2   21     -1.05      0.00
    0    2   21     -0.69      0.00
    1    2   21      0.86      0.00
    2    2   21     -1.17      0.00
    3    2   21     -0.03      0.00
    4    2   21     -1.09      0.00
    5    2   21     -0.55      0.00
    6    2   21      0.81      0.00
    7    2   21      2.94      0.00
    8    2   21      0.77      0.00
  -10    3   21      0.08      0.00
   -9    3   21     -1.73      0.00
   -8    3   21      1.21      0.00
   -7    3   21     -3.60      0.00
   -6    3   21     -0.53      0.00
   -5    3   21      0.81      0.00
   -4    3   21     -0.31      0.00
   -3    3   21     -5.90      0.00
   -2    3   21      1.18      0.00
   -1    3   21     -2.80      0.00
    0    3   21     -3.71      0.00
    1    3   21      1.19      0.00
    2    3   21      1.16      0.00
    3    3   21     -6.06      0.00
    4    3   21     -1.48      0.00
    5    3   21     -1.50      0.00
    6    3   21     -1.43      0.00
    7    3   21      0.87      0.00
  -10    4   21     -2.24      0.00
   -9    4   21     -1.31      0.00
   -8    4   21     -0.31      0.00
   -7    4   21     -0.34      0.00
   -6    4   21      0.41      0.00
   -5    4   21     -1.21      0.00
   -4    4   21     -0.93      0.00
   -3    4   21     -3.14      0.00
   -2    4   21      0.73      0.00
   -1    4   21      6.51      0.00
    0    4   21     -2.16      0.00
    1    4   21     -0.54      0.00
    2    4   21     -1.17      0.00
    3    4   21     -0.47      0.00
    4    4   21     -2.39      0.00
    5    4   21      3.93      0.00
    6    4   21      2.37      0.00
    7    4   21      1.37      0.00
  -10    5   21      1.46      0.00
   -9    5   21     -0.41      0.00
   -8    5   21     -0.20      0.00
   -7    5   21     -1.00      0.00
   -6    5   21     -1.53      0.00
   -5    5   21     -3.62      0.00
   -4    5   21      0.86      0.00
   -3    5   21     -2.66      0.00
   -2    5   21      2.46      0.00
   -1    5   21     -3.18      0.00
    0    5   21     -3.00      0.00
    1    5   21     -0.74      0.00
    2    5   21     -0.40      0.00
    3    5   21     -1.50      0.00
    4    5   21     -1.06      0.00
    5    5   21     -3.39      0.00
    6    5   21     -0.61      0.00
    7    5   21      0.94      0.00
   -9    6   21      2.01      0.00
   -8    6   21     -1.06      0.00
   -7    6   21     -0.31      0.00
   -6    6   21      2.67      0.00
   -5    6   21      0.07      0.00
   -4    6   21      2.71      0.00
   -3    6   21     -0.58      0.00
   -2    6   21      0.56      0.00
   -1    6   21      3.52      0.00
    0    6   21     -1.36      0.00
    1    6   21      1.56      0.00
    2    6   21     -0.05      0.00
    3    6   21     -1.63      0.00
    4    6   21     -0.67      0.00
    5    6   21      4.18      0.00
    6    6   21      2.16      0.00
    7    6   21      0.07      0.00
   -9    7   21      1.42      0.00
   -8    7   21     -2.36      0.00
   -7    7   21      0.10      0.00
   -6    7   21     -0.22      0.00
   -5    7   21     -3.69      0.00
   -4    7   21     -3.05      0.00
   -3    7   21     -0.35      0.00
   -2    7   21      1.38      0.00
   -1    7   21     -3.15      0.00
    0    7   21     -0.09      0.00
    1    7   21     -1.81      0.00
    2    7   21     -0.34      0.00
    3    7   21      1.70      0.00
    4    7   21      1.21      0.00
    5    7   21     -1.30      0.00
    6    7   21     -0.06      0.00
    7    7   21     -0.57      0.00
   -9    8   21      0.74      0.00
   -8    8   21     -1.88      0.00
   -7    8   21     -1.90      0.00
   -6    8   21      1.28      0.00
   -5    8   21      2.15      0.00
   -4    8   21      2.78      0.00
   -3    8   21      3.50      0.00
   -2    8   21      3.48      0.00
   -1    8   21     -1.56      0.00
    0    8   21     -0.19      0.00
    1    8   21      3.77      0.00
    2    8   21     -0.08      0.00
    3    8   21     -0.77      0.00
    4    8   21      1.10      0.00
    5    8   21     -0.03      0.00
    6    8   21     -0.38      0.00
   -8    9   21     -1.48      0.00
   -7    9   21     -0.09      0.00
   -6    9   21      1.08      0.00
   -5    9   21     -0.56      0.00
   -4    9   21     -4.18      0.00
   -3    9   21     -0.90      0.00
   -2    9   21      0.67      0.00
   -1    9   21     -2.90      0.00
    0    9   21      0.31      0.00
    1    9   21     -0.93      0.00
    2    9   21     -0.51      0.00
    3    9   21     -0.57      0.00
    4    9   21      0.29      0.00
    5    9   21      0.92      0.00
    6    9   21     -1.30      0.00
   -8   10   21     -1.16      0.00
   -7   10   21     -0.84      0.00
   -6   10   21     -0.86      0.00
   -5   10   21      1.72      0.00
   -4   10   21      1.01      0.00
   -3   10   21      4.07      0.00
   -2   10   21      5.21      0.00
   -1   10   21     -3.08      0.00
    0   10   21      0.39      0.00
    1   10   21      2.06      0.00
    2   10   21     -0.15      0.00
    3   10   21      2.04      0.00
    4   10   21      1.08      0.00
    5   10   21     -2.23      0.00
   -7   11   21     -1.22      0.00
   -6   11   21      0.82      0.00
   -5   11   21      0.18      0.00
   -4   11   21     -1.91      0.00
   -3   11   21     -2.02      0.00
   -2   11   21      0.91      0.00
   -1   11   21     -0.58      0.00
    0   11   21      0.39      0.00
    1   11   21      2.39      0.00
    2   11   21     -0.50      0.00
    3   11   21     -1.74      0.00
    4   11   21     -1.61      0.00
    5   11   21      0.28      0.00
   -7   12   21     -0.87      0.00
   -6   12   21      0.83      0.00
   -5   12   21      0.92      0.00
   -4   12   21      0.35      0.00
   -3   12   21      1.63      0.00
   -2   12   21      3.89      0.00
   -1   12   21     -0.34      0.00
    0   12   21     -0.27      0.00
    1   12   21     -0.37      0.00
    2   12   21      0.93      0.00
    3   12   21      2.43      0.00
    4   12   21      1.24      0.00
   -6   13   21     -0.87      0.00
   -5   13   21     -0.67      0.00
   -4   13   21     -0.36      0.00
   -3   13   21     -0.68      0.00
   -2   13   21     -0.18      0.00
   -1   13   21      0.35      0.00
    0   13   21      0.56      0.00
    1   13   21      1.99      0.00
    2   13   21      0.38      0.00
    3   13   21     -1.69      0.00
   -5   14   21      0.75      0.00
   -4   14   21     -0.30      0.00
   -3   14   21      0.37      0.00
   -2   14   21      0.19      0.00
   -1   14   21      1.48      0.00
    0   14   21     -1.27      0.00
    1   14   21     -2.06      0.00
    2   14   21      0.71      0.00
   -3   15   21      1.58      0.00
   -2   15   21     -0.39      0.00
   -1   15   21     -1.03      0.00
    0   15   21     -0.46      0.00
    1   15   21     -0.24      0.00
  -10    0   22      2.07      0.00
   -8    0   22      2.91      0.00
   -6    0   22      3.78      0.00
   -4    0   22     -4.89      0.00
   -2    0   22     -3.48      0.00
    0    0   22     -2.89      0.00
    2    0   22      3.61      0.00
    4    0   22     -1.25      0.00
    6    0   22     -2.18      0.00
  -10    1   22      0.39      0.00
   -9    1   22     -3.31      0.00
   -8    1   22      1.33      0.00
   -7    1   22     -3.24      0.00
   -6    1   22     -0.31      0.00
   -5    1   22      2.53      0.00
   -4    1   22     -0.77      0.00
   -3    1   22     -0.99      0.00
   -2    1   22      1.58      0.00
   -1    1   22     -1.00      0.00
    0    1   22     -0.23      0.00
    1    1   22      1.89      0.00
    2    1   22     -0.89      0.00
    3    1   22     -0.03      0.00
    4    1   22     -0.49      0.00
    5    1   22     -1.76      0.00
    6    1   22      0.36      0.00
    7    1   22      2.19      0.00
  -10    2   22      0.57      0.00
   -9    2   22     -2.50      0.00
   -8    2   22      1.43      0.00
   -7    2   22     -3.51      0.00
   -6    2   22      0.45      0.00
   -5    2   22      0.79      0.00
   -4    2   22     -2.39      0.00
   -3    2   22     -5.52      0.00
   -2    2   22     -2.70      0.00
   -1    2   22     -0.29      0.00
    0    2   22     -4.06      0.00
    1    2   22     -0.04      0.00
    2    2   22      2.14      0.00
    3    2   22     -5.55      0.00
    4    2   22     -1.51      0.00
    5    2   22      0.45      0.00
    6    2   22     -1.53      0.00
    7    2   22      0.22      0.00
  -10    3   22     -0.89      0.00
   -9    3   22     -2.83      0.00
   -8    3   22      1.13      0.00
   -7    3   22     -1.08      0.00
   -6    3   22     -0.51      0.00
   -5    3   22      0.02      0.00
   -4    3   22     -0.94      0.00
   -3    3   22     -2.05      0.00
   -2    3   22      1.86      0.00
   -1    3   22      5.33      0.00
    0    3   22     -1.75      0.00
    1    3   22     -1.18      0.00
    2    3   22     -1.36      0.00
    3    3   22      1.18      0.00
    4    3   22     -2.24      0.00
    5    3   22      1.72      0.00
    6    3   22      0.99      0.00
    7    3   22      2.39      0.00
   -9    4   22     -2.60      0.00
   -8    4   22      0.15      0.00
   -7    4   22     -2.50      0.00
   -6    4   22     -1.72      0.00
   -5    4   22     -2.43      0.00
   -4    4   22      1.40      0.00
   -3    4   22     -5.53      0.00
   -2    4   22     -0.19      0.00
   -1    4   22     -2.02      0.00
    0    4   22     -3.91      0.00
    1    4   22     -0.13      0.00
    2    4   22      0.37      0.00
    3    4   22     -4.53      0.00
    4    4   22     -2.03      0.00
    5    4   22     -1.40      0.00
    6    4   22     -0.82      0.00
    7    4   22      0.61      0.00
   -9    5   22      1.07      0.00
   -8    5   22     -0.38      0.00
   -7    5   22      0.31      0.00
   -6    5   22      2.17      0.00
   -5    5   22     -0.73      0.00
   -4    5   22      1.27      0.00
   -3    5   22     -1.23      0.00
   -2    5   22      0.09      0.00
   -1    5   22      6.46      0.00
    0    5   22     -1.98      0.00
    1    5   22     -1.28      0.00
    2    5   22     -0.52      0.00
    3    5   22      0.56      0.00
    4    5   22     -2.47      0.00
    5    5   22      4.25      0.00
    6    5   22      1.72      0.00
    7    5   22     -0.11      0.00
   -9    6   22     -0.23      0.00
   -8    6   22     -1.44      0.00
   -7    6   22     -0.67      0.00
   -6    6   22     -0.37      0.00
   -5    6   22     -3.78      0.00
   -4    6   22     -1.49      0.00
   -3    6   22     -1.84      0.00
   -2    6   22      1.65      0.00
   -1    6   22     -3.36      0.00
    0    6   22     -0.74      0.00
    1    6   22     -0.55      0.00
    2    6   22      0.25      0.00
    3    6   22      0.65      0.00
    4    6   22     -0.17      0.00
    5    6   22     -2.33      0.00
    6    6   22      0.17      0.00
   -9    7   22      1.81      0.00
   -8    7   22     -0.54      0.00
   -7    7   22     -1.38      0.00
   -6    7   22      2.50      0.00
   -5    7   22      2.08      0.00
   -4    7   22      2.54      0.00
   -3    7   22      1.20      0.00
   -2    7   22      2.35      0.00
   -1    7   22      0.69      0.00
    0    7   22     -0.62      0.00
    1    7   22      1.79      0.00
    2    7   22     -0.02      0.00
    3    7   22     -1.12      0.00
    4    7   22     -0.30      0.00
    5    7   22      2.66      0.00
    6    7   22      0.26      0.00
   -8    8   22     -1.48      0.00
   -7    8   22      0.30      0.00
   -6    8   22     -0.27      0.00
   -5    8   22     -1.14      0.00
   -4    8   22     -4.67      0.00
   -3    8   22     -1.03      0.00
   -2    8   22      2.12      0.00
   -1    8   22     -3.34      0.00
    0    8   22     -0.02      0.00
    1    8   22     -0.76      0.00
    2    8   22      0.57      0.00
    3    8   22      1.75      0.00
    4    8   22      0.66      0.00
    5    8   22      0.48      0.00
    6    8   22     -0.32      0.00
   -8    9   22     -1.11      0.00
   -7    9   22     -0.61      0.00
   -6    9   22     -1.65      0.00
   -5    9   22      3.13      0.00
   -4    9   22      1.84      0.00
   -3    9   22      2.63      0.00
   -2    9   22      4.08      0.00
   -1    9   22     -2.27      0.00
    0    9   22     -0.53      0.00
    1    9   22      2.70      0.00
    2    9   22      0.24      0.00
    3    9   22     -0.07      0.00
    4    9   22      0.11      0.00
    5    9   22     -1.26      0.00
   -8   10   22     -0.56      0.00
   -7   10   22      0.17      0.00
   -6   10   22      0.04      0.00
   -5   10   22     -0.14      0.00
   -4   10   22     -2.77      0.00
   -3   10   22     -1.59      0.00
   -2   10   22      2.44      0.00
   -1   10   22     -0.39      0.00
    0   10   22     -0.25      0.00
    1   10   22      0.14      0.00
    2   10   22      0.38      0.00
    3   10   22     -0.95      0.00
    4   10   22     -1.27      0.00
    5   10   22      1.14      0.00
   -7   11   22      0.28      0.00
   -6   11   22     -1.39      0.00
   -5   11   22      1.84      0.00
   -4   11   22      1.42      0.00
   -3   11   22      1.54      0.00
   -2   11   22      3.43      0.00
   -1   11   22     -1.86      0.00
    0   11   22     -0.74      0.00
    1   11   22      0.70      0.00
    2   11   22      1.52      0.00
    3   11   22      1.94      0.00
    4   11   22      0.23      0.00
   -6   12   22     -0.75      0.00
   -5   12   22     -1.16      0.00
   -4   12   22     -0.08      0.00
   -3   12   22     -1.97      0.00
   -2   12   22      1.17      0.00
   -1   12   22      2.36      0.00
    0   12   22      0.98      0.00
    1   12   22      1.51      0.00
    2   12   22      0.05      0.00
    3   12   22     -1.58      0.00
    4   12   22     -1.70      0.00
   -5   13   22      0.68      0.00
   -4   13   22      1.03      0.00
   -3   13   22     -0.01      0.00
   -2   13   22      1.02      0.00
   -1   13   22      0.58      0.00
    0   13   22     -1.45      0.00
    1   13   22     -1.02      0.00
    2   13   22      2.02      0.00
    3   13   22      1.13      0.00
   -4   14   22      0.05      0.00
   -3   14   22      0.14      0.00
   -2   14   22     -0.48      0.00
   -1   14   22      0.91      0.00
    0   14   22      1.13      0.00
    1   14   22     -0.27      0.00
   -1   15   22      0.20      0.00
   -9    0   23     -2.73      0.00
   -7    0   23     -1.76      0.00
   -5    0   23      3.10      0.00
   -3    0   23     -0.44      0.00
   -1    0   23      0.75      0.00
    1    0   23      2.17      0.00
    3    0   23      0.16      0.00
    5    0   23     -0.72      0.00
    7    0   23      0.82      0.00
   -9    1   23     -1.75      0.00
   -8    1   23      1.24      0.00
   -7    1   23     -1.67      0.00
   -6    1   23      0.95      0.00
   -5    1   23      0.16      0.00
   -4    1   23     -3.84      0.00
   -3    1   23     -2.86      0.00
   -2    1   23     -5.01      0.00
   -1    1   23      0.96      0.00
    0    1   23     -2.90      0.00
    1    1   23     -0.61      0.00
    2    1   23      1.68      0.00
    3    1   23     -2.53      0.00
    4    1   23     -1.75      0.00
    5    1   23      0.76      0.00
    6    1   23     -0.76      0.00
    7    1   23     -0.03      0.00
   -9    2   23     -2.98      0.00
   -8    2   23      1.85      0.00
   -7    2   23     -1.04      0.00
   -6    2   23     -1.49      0.00
   -5    2   23      1.54      0.00
   -4    2   23     -0.30      0.00
   -3    2   23     -0.82      0.00
   -2    2   23      2.05      0.00
   -1    2   23      3.06      0.00
    0    2   23     -1.10      0.00
    1    2   23     -0.29      0.00
    2    2   23     -1.90      0.00
    3    2   23      1.06      0.00
    4    2   23     -1.12      0.00
    5    2   23      0.02      0.00
    6    2   23      0.45      0.00
    7    2   23      1.92      0.00
   -9    3   23     -3.35      0.00
   -8    3   23     -0.39      0.00
   -7    3   23     -2.26      0.00
   -6    3   23     -1.66      0.00
   -5    3   23     -1.49      0.00
   -4    3   23      0.53      0.00
   -3    3   23     -6.10      0.00
   -2    3   23     -3.65      0.00
   -1    3   23      0.50      0.00
    0    3   23     -3.66      0.00
    1    3   23     -0.92      0.00
    2    3   23      0.46      0.00
    3    3   23     -5.12      0.00
    4    3   23     -1.51      0.00
    5    3   23      1.21      0.00
    6    3   23     -0.46      0.00
    7    3   23      0.12      0.00
   -9    4   23     -0.81      0.00
   -8    4   23     -0.27      0.00
   -7    4   23      0.35      0.00
   -6    4   23      0.30      0.00
   -5    4   23     -0.95      0.00
   -4    4   23     -0.03      0.00
   -3    4   23     -0.48      0.00
   -2    4   23     -0.39      0.00
   -1    4   23      6.27      0.00
    0    4   23     -2.15      0.00
    1    4   23     -2.80      0.00
    2    4   23     -1.18      0.00
    3    4   23      2.23      0.00
    4    4   23     -2.87      0.00
    5    4   23      1.83      0.00
    6    4   23      0.40      0.00
   -9    5   23     -1.80      0.00
   -8    5   23     -0.91      0.00
   -7    5   23     -0.78      0.00
   -6    5   23     -0.14      0.00
   -5    5   23     -3.30      0.00
   -4    5   23      1.01      0.00
   -3    5   23     -3.38      0.00
   -2    5   23     -0.28      0.00
   -1    5   23     -1.91      0.00
    0    5   23     -0.81      0.00
    1    5   23     -0.40      0.00
    2    5   23      0.44      0.00
    3    5   23     -2.21      0.00
    4    5   23     -0.73      0.00
    5    5   23     -1.10      0.00
    6    5   23      0.27      0.00
   -9    6   23      1.68      0.00
   -8    6   23     -0.42      0.00
   -7    6   23     -0.73      0.00
   -6    6   23      3.02      0.00
   -5    6   23      0.41      0.00
   -4    6   23      0.85      0.00
   -3    6   23      0.54      0.00
   -2    6   23     -0.51      0.00
   -1    6   23      2.95      0.00
    0    6   23     -1.01      0.00
    1    6   23     -1.37      0.00
    2    6   23     -0.54      0.00
    3    6   23      0.57      0.00
    4    6   23     -1.80      0.00
    5    6   23      3.12      0.00
    6    6   23      0.30      0.00
   -8    7   23     -1.15      0.00
   -7    7   23      0.25      0.00
   -6    7   23      0.03      0.00
   -5    7   23     -1.32      0.00
   -4    7   23     -3.31      0.00
   -3    7   23     -0.79      0.00
   -2    7   23      2.31      0.00
   -1    7   23     -3.23      0.00
    0    7   23      0.68      0.00
    1    7   23      0.28      0.00
    2    7   23      0.98      0.00
    3    7   23      2.55      0.00
    4    7   23      0.85      0.00
    5    7   23     -0.72      0.00
    6    7   23      0.70      0.00
   -8    8   23     -0.10      0.00
   -7    8   23     -0.99      0.00
   -6    8   23     -0.49      0.00
   -5    8   23      2.45      0.00
   -4    8   23      1.23      0.00
   -3    8   23      0.85      0.00
   -2    8   23      2.23      0.00
   -1    8   23     -0.90      0.00
    0    8   23     -0.72      0.00
    1    8   23      1.41      0.00
    2    8   23     -0.12      0.00
    3    8   23     -1.26      0.00
    4    8   23     -0.38      0.00
    5    8   23      0.37      0.00
   -8    9   23     -0.53      0.00
   -7    9   23      1.19      0.00
   -6    9   23     -0.57      0.00
   -5    9   23      0.02      0.00
   -4    9   23     -2.73      0.00
   -3    9   23     -0.32      0.00
   -2    9   23      3.77      0.00
   -1    9   23     -1.28      0.00
    0    9   23     -0.67      0.00
    1    9   23     -0.44      0.00
    2    9   23      1.46      0.00
    3    9   23      1.57      0.00
    4    9   23     -0.47      0.00
    5    9   23      1.12      0.00
   -7   10   23      1.00      0.00
   -6   10   23     -3.06      0.00
   -5   10   23      2.05      0.00
   -4   10   23      1.31      0.00
   -3   10   23      0.75      0.00
   -2   10   23      1.90      0.00
   -1   10   23     -1.75      0.00
    0   10   23     -1.03      0.00
    1   10   23      1.55      0.00
    2   10   23      0.92      0.00
    3   10   23      0.38      0.00
    4   10   23     -0.83      0.00
   -6   11   23     -0.58      0.00
   -5   11   23     -0.96      0.00
   -4   11   23     -0.07      0.00
   -3   11   23     -1.08      0.00
   -2   11   23      3.16      0.00
   -1   11   23      2.53      0.00
    0   11   23     -0.16      0.00
    1   11   23      0.26      0.00
    2   11   23      0.83      0.00
    3   11   23     -0.60      0.00
    4   11   23     -1.63      0.00
   -6   12   23     -0.67      0.00
   -5   12   23      0.94      0.00
   -4   12   23      1.56      0.00
   -3   12   23     -0.28      0.00
   -2   12   23      0.57      0.00
   -1   12   23     -0.47      0.00
    0   12   23     -0.91      0.00
    1   12   23      0.47      0.00
    2   12   23      2.12      0.00
    3   12   23      1.02      0.00
   -5   13   23     -1.64      0.00
   -4   13   23      0.81      0.00
   -3   13   23     -0.68      0.00
   -2   13   23      0.47      0.00
   -1   13   23      2.77      0.00
    0   13   23      1.22      0.00
    1   13   23     -0.29      0.00
    2   13   23     -0.05      0.00
   -3   14   23     -0.42      0.00
   -2   14   23     -0.26      0.00
   -1   14   23      0.05      0.00
    0   14   23     -0.86      0.00
   -8    0   24     -0.12      0.00
   -6    0   24      0.49      0.00
   -4    0   24     -4.10      0.00
   -2    0   24     -4.61      0.00
    0    0   24     -0.91      0.00
    2    0   24     -0.22      0.00
    4    0   24     -2.11      0.00
    6    0   24      0.93      0.00
   -9    1   24     -1.97      0.00
   -8    1   24      1.04      0.00
   -7    1   24      0.45      0.00
   -6    1   24     -1.40      0.00
   -5    1   24      1.76      0.00
   -4    1   24      0.18      0.00
   -3    1   24     -0.47      0.00
   -2    1   24      1.16      0.00
   -1    1   24      1.31      0.00
    0    1   24     -0.56      0.00
    1    1   24      1.15      0.00
    2    1   24     -1.80      0.00
    3    1   24      0.50      0.00
    4    1   24     -0.01      0.00
    5    1   24      0.14      0.00
    6    1   24      0.54      0.00
   -9    2   24     -2.51      0.00
   -8    2   24     -1.12      0.00
   -7    2   24     -1.09      0.00
   -6    2   24     -0.91      0.00
   -5    2   24     -0.95      0.00
   -4    2   24     -1.37      0.00
   -3    2   24     -4.15      0.00
   -2    2   24     -4.67      0.00
   -1    2   24      2.07      0.00
    0    2   24     -1.92      0.00
    1    2   24     -1.34      0.00
    2    2   24     -0.53      0.00
    3    2   24     -2.98      0.00
    4    2   24     -1.13      0.00
    5    2   24      1.74      0.00
    6    2   24      0.56      0.00
   -9    3   24     -1.59      0.00
   -8    3   24     -0.07      0.00
   -7    3   24      0.25      0.00
   -6    3   24     -1.82      0.00
   -5    3   24     -0.39      0.00
   -4    3   24     -0.27      0.00
   -3    3   24      0.06      0.00
   -2    3   24      0.06      0.00
   -1    3   24      3.11      0.00
    0    3   24     -1.80      0.00
    1    3   24     -2.06      0.00
    2    3   24     -2.42      0.00
    3    3   24      1.87      0.00
    4    3   24     -1.61      0.00
    5    3   24     -0.30      0.00
    6    3   24      0.10      0.00
   -9    4   24     -2.16      0.00
   -8    4   24     -1.39      0.00
   -7    4   24      0.03      0.00
   -6    4   24     -0.11      0.00
   -5    4   24     -2.53      0.00
   -4    4   24      2.25      0.00
   -3    4   24     -4.15      0.00
   -2    4   24     -2.53      0.00
   -1    4   24      0.10      0.00
    0    4   24     -0.66      0.00
    1    4   24     -1.24      0.00
    2    4   24     -0.09      0.00
    3    4   24     -3.90      0.00
    4    4   24     -0.17      0.00
    5    4   24      1.39      0.00
    6    4   24      0.28      0.00
   -9    5   24      0.54      0.00
   -8    5   24     -1.34      0.00
   -7    5   24     -0.48      0.00
   -6    5   24      1.87      0.00
   -5    5   24     -0.98      0.00
   -4    5   24     -1.06      0.00
   -3    5   24      1.01      0.00
   -2    5   24     -2.78      0.00
   -1    5   24      3.04      0.00
    0    5   24     -1.30      0.00
    1    5   24     -2.98      0.00
    2    5   24     -1.35      0.00
    3    5   24      2.35      0.00
    4    5   24     -2.53      0.00
    5    5   24      1.19      0.00
    6    5   24     -0.30      0.00
   -8    6   24     -0.82      0.00
   -7    6   24      0.43      0.00
   -6    6   24      0.93      0.00
   -5    6   24     -1.32      0.00
   -4    6   24     -0.66      0.00
   -3    6   24     -0.74      0.00
   -2    6   24      1.18      0.00
   -1    6   24     -2.31      0.00
    0    6   24      1.74      0.00
    1    6   24      0.41      0.00
    2    6   24      0.78      0.00
    3    6   24      0.19      0.00
    4    6   24      1.10      0.00
    5    6   24     -0.67      0.00
   -8    7   24      0.24      0.00
   -7    7   24     -1.38      0.00
   -6    7   24      1.29      0.00
   -5    7   24      0.79      0.00
   -4    7   24     -0.66      0.00
   -3    7   24      0.41      0.00
   -2    7   24     -0.75      0.00
   -1    7   24      0.01      0.00
    0    7   24     -0.48      0.00
    1    7   24     -1.02      0.00
    2    7   24     -0.76      0.00
    3    7   24     -0.71      0.00
    4    7   24     -0.68      0.00
    5    7   24      1.32      0.00
   -8    8   24     -0.37      0.00
   -7    8   24      1.30      0.00
   -6    8   24     -0.39      0.00
   -5    8   24      0.52      0.00
   -4    8   24     -2.14      0.00
   -3    8   24      0.86      0.00
   -2    8   24      3.87      0.00
   -1    8   24     -2.17      0.00
    0    8   24      0.31      0.00
    1    8   24      0.39      0.00
    2    8   24      1.63      0.00
    3    8   24      3.19      0.00
    4    8   24      0.71      0.00
    5    8   24      0.25      0.00
   -7    9   24      0.27      0.00
   -6    9   24     -2.78      0.00
   -5    9   24      0.94      0.00
   -4    9   24      0.28      0.00
   -3    9   24     -0.27      0.00
   -2    9   24      0.60      0.00
   -1    9   24     -0.78      0.00
    0    9   24     -1.14      0.00
    1    9   24      1.08      0.00
    2    9   24      0.00      0.00
    3    9   24     -1.30      0.00
    4    9   24     -0.62      0.00
   -6   10   24     -0.14      0.00
   -5   10   24     -0.13      0.00
   -4   10   24      0.21      0.00
   -3   10   24      0.76      0.00
   -2   10   24      4.62      0.00
   -1   10   24      0.98      0.00
    0   10   24     -1.04      0.00
    1   10   24     -0.41      0.00
    2   10   24      1.95      0.00
    3   10   24      1.08      0.00
    4   10   24     -0.98      0.00
   -6   11   24     -2.17      0.00
   -5   11   24      0.71      0.00
   -4   11   24      0.97      0.00
   -3   11   24     -0.50      0.00
   -2   11   24     -0.33      0.00
   -1   11   24     -0.39      0.00
    0   11   24     -0.57      0.00
    1   11   24      1.25      0.00
    2   11   24      1.02      0.00
    3   11   24      0.24      0.00
   -5   12   24     -1.00      0.00
   -4   12   24      1.09      0.00
   -3   12   24     -0.32      0.00
   -2   12   24      2.22      0.00
   -1   12   24      2.95      0.00
    0   12   24     -0.17      0.00
    1   12   24     -0.17      0.00
    2   12   24      0.66      0.00
   -3   13   24     -0.78      0.00
   -2   13   24     -0.70      0.00
   -1   13   24      0.19      0.00
    0   13   24     -0.18      0.00
   -9    0   25     -0.93      0.00
   -7    0   25      2.07      0.00
   -5    0   25      0.40      0.00
   -3    0   25     -1.42      0.00
   -1    0   25     -0.28      0.00
    1    0   25      1.88      0.00
    3    0   25     -0.11      0.00
    5    0   25      0.56      0.00
   -9    1   25     -0.95      0.00
   -8    1   25     -1.74      0.00
   -7    1   25     -0.20      0.00
   -6    1   25      0.35      0.00
   -5    1   25     -0.52      0.00
   -4    1   25     -2.84      0.00
   -3    1   25     -1.40      0.00
   -2    1   25     -2.46      0.00
   -1    1   25      1.62      0.00
    0    1   25      0.37      0.00
    1    1   25     -0.82      0.00
    2    1   25     -1.99      0.00
    3    1   25     -0.73      0.00
    4    1   25     -1.37      0.00
    5    1   25      0.66      0.00
    6    1   25      1.89      0.00
   -9    2   25     -1.02      0.00
   -8    2   25     -0.16      0.00
   -7    2   25      0.85      0.00
   -6    2   25     -2.77      0.00
   -5    2   25     -0.25      0.00
   -4    2   25      0.17      0.00
   -3    2   25     -0.75      0.00
   -2    2   25      0.30      0.00
   -1    2   25     -0.19      0.00
    0    2   25     -1.17      0.00
    1    2   25     -0.05      0.00
    2    2   25     -3.25      0.00
    3    2   25      0.47      0.00
    4    2   25      0.28      0.00
    5    2   25     -0.46      0.00
    6    2   25      0.84      0.00
   -8    3   25     -1.93      0.00
   -7    3   25      0.87      0.00
   -6    3   25      0.34      0.00
   -5    3   25     -1.70      0.00
   -4    3   25      1.35      0.00
   -3    3   25     -3.20      0.00
   -2    3   25     -2.66      0.00
   -1    3   25      1.44      0.00
    0    3   25     -0.25      0.00
    1    3   25     -1.75      0.00
    2    3   25     -1.33      0.00
    3    3   25     -2.84      0.00
    4    3   25      0.31      0.00
    5    3   25      2.16      0.00
   -8    4   25     -1.86      0.00
   -7    4   25     -0.83      0.00
   -6    4   25     -0.54      0.00
   -5    4   25     -1.38      0.00
   -4    4   25     -1.66      0.00
   -3    4   25      0.79      0.00
   -2    4   25     -2.60      0.00
   -1    4   25      0.75      0.00
    0    4   25     -1.40      0.00
    1    4   25     -2.11      0.00
    2    4   25     -2.58      0.00
    3    4   25      2.43      0.00
    4    4   25     -1.75      0.00
    5    4   25     -0.75      0.00
   -8    5   25     -0.92      0.00
   -7    5   25      1.23      0.00
   -6    5   25      1.46      0.00
   -5    5   25     -1.27      0.00
   -4    5   25      1.96      0.00
   -3    5   25     -1.14      0.00
   -2    5   25     -0.07      0.00
   -1    5   25     -1.36      0.00
    0    5   25      1.75      0.00
    1    5   25     -0.48      0.00
    2    5   25      0.13      0.00
    3    5   25     -2.64      0.00
    4    5   25      1.28      0.00
    5    5   25      0.79      0.00
   -8    6   25     -0.58      0.00
   -7    6   25     -1.61      0.00
   -6    6   25      1.96      0.00
   -5    6   25     -0.44      0.00
   -4    6   25     -2.76      0.00
   -3    6   25      0.87      0.00
   -2    6   25     -3.16      0.00
   -1    6   25     -0.17      0.00
    0    6   25     -0.22      0.00
    1    6   25     -2.07      0.00
    2    6   25     -1.51      0.00
    3    6   25      0.99      0.00
    4    6   25     -1.20      0.00
    5    6   25      0.88      0.00
   -7    7   25      1.04      0.00
   -6    7   25     -0.11      0.00
   -5    7   25      0.79      0.00
   -4    7   25     -0.98      0.00
   -3    7   25      1.31      0.00
   -2    7   25      2.96      0.00
   -1    7   25     -2.50      0.00
    0    7   25      1.64      0.00
    1    7   25      0.92      0.00
    2    7   25      1.06      0.00
    3    7   25      1.62      0.00
    4    7   25      1.48      0.00
   -7    8   25     -0.75      0.00
   -6    8   25     -1.12      0.00
   -5    8   25     -0.19      0.00
   -4    8   25     -1.34      0.00
   -3    8   25     -0.43      0.00
   -2    8   25     -0.72      0.00
   -1    8   25     -0.48      0.00
    0    8   25     -0.65      0.00
    1    8   25     -0.29      0.00
    2    8   25     -0.50      0.00
    3    8   25     -1.91      0.00
    4    8   25      0.18      0.00
   -6    9   25     -0.11      0.00
   -5    9   25      0.81      0.00
   -4    9   25      0.20      0.00
   -3    9   25      2.09      0.00
   -2    9   25      4.55      0.00
   -1    9   25     -0.87      0.00
    0    9   25     -0.35      0.00
    1    9   25     -0.23      0.00
    2    9   25      2.07      0.00
    3    9   25      2.27      0.00
   -6   10   25     -2.66      0.00
   -5   10   25     -0.19      0.00
   -4   10   25      0.09      0.00
   -3   10   25     -0.59      0.00
   -2   10   25     -0.61      0.00
   -1   10   25      0.47      0.00
    0   10   25     -0.80      0.00
    1   10   25      1.03      0.00
    2   10   25      0.00      0.00
    3   10   25     -0.85      0.00
   -5   11   25      0.15      0.00
   -4   11   25      1.15      0.00
   -3   11   25      0.72      0.00
   -2   11   25      3.43      0.00
   -1   11   25      1.58      0.00
    0   11   25     -1.02      0.00
    1   11   25     -0.25      0.00
    2   11   25      1.70      0.00
   -4   12   25      0.67      0.00
   -3   12   25     -0.77      0.00
   -2   12   25     -0.99      0.00
   -1   12   25      0.92      0.00
    0   12   25      0.35      0.00
    1   12   25      0.98      0.00
   -8    0   26     -2.04      0.00
   -6    0   26      1.90      0.00
   -4    0   26     -2.60      0.00
   -2    0   26      0.43      0.00
    0    0   26      1.42      0.00
    2    0   26     -2.51      0.00
    4    0   26     -1.18      0.00
   -8    1   26     -0.41      0.00
   -7    1   26      1.69      0.00
   -6    1   26     -1.95      0.00
   -5    1   26     -1.21      0.00
   -4    1   26      0.33      0.00
   -3    1   26     -2.60      0.00
   -2    1   26     -0.17      0.00
   -1    1   26     -1.84      0.00
    0    1   26     -0.42      0.00
    1    1   26      1.55      0.00
    2    1   26     -2.17      0.00
    3    1   26     -0.95      0.00
    4    1   26      1.01      0.00
    5    1   26      0.26      0.00
   -8    2   26     -1.79      0.00
   -7    2   26      0.84      0.00
   -6    2   26      1.66      0.00
   -5    2   26     -1.01      0.00
   -4    2   26     -0.43      0.00
   -3    2   26     -0.99      0.00
   -2    2   26     -0.61      0.00
   -1    2   26      1.64      0.00
    0    2   26      0.41      0.00
    1    2   26     -1.61      0.00
    2    2   26     -2.26      0.00
    3    2   26     -0.97      0.00
    4    2   26      0.00      0.00
    5    2   26      0.99      0.00
   -8    3   26     -1.71      0.00
   -7    3   26     -0.95      0.00
   -6    3   26     -2.63      0.00
   -5    3   26     -1.43      0.00
   -4    3   26     -0.90      0.00
   -3    3   26     -0.67      0.00
   -2    3   26     -1.43      0.00
   -1    3   26     -1.65      0.00
    0    3   26     -1.15      0.00
    1    3   26     -0.29      0.00
    2    3   26     -3.48      0.00
    3    3   26      0.96      0.00
    4    3   26      0.27      0.00
    5    3   26     -0.97      0.00
   -8    4   26     -0.85      0.00
   -7    4   26      1.96      0.00
   -6    4   26      1.96      0.00
   -5    4   26     -1.10      0.00
   -4    4   26      2.79      0.00
   -3    4   26     -1.15      0.00
   -2    4   26     -0.41      0.00
   -1    4   26     -0.79      0.00
    0    4   26      0.69      0.00
    1    4   26     -1.30      0.00
    2    4   26     -0.86      0.00
    3    4   26     -3.05      0.00
    4    4   26      1.09      0.00
    5    4   26      1.57      0.00
   -7    5   26     -2.07      0.00
   -6    5   26      0.85      0.00
   -5    5   26     -1.06      0.00
   -4    5   26     -3.50      0.00
   -3    5   26      0.71      0.00
   -2    5   26     -3.02      0.00
   -1    5   26     -0.95      0.00
    0    5   26     -0.41      0.00
    1    5   26     -1.03      0.00
    2    5   26     -2.42      0.00
    3    5   26      2.23      0.00
    4    5   26     -1.26      0.00
   -7    6   26      1.11      0.00
   -6    6   26      0.11      0.00
   -5    6   26      0.50      0.00
   -4    6   26      1.02      0.00
   -3    6   26      0.73      0.00
   -2    6   26      1.83      0.00
   -1    6   26     -2.66      0.00
    0    6   26      1.51      0.00
    1    6   26      0.59      0.00
    2    6   26      0.44      0.00
    3    6   26     -1.51      0.00
    4    6   26      1.35      0.00
   -7    7   26     -1.17      0.00
   -6    7   26      0.50      0.00
   -5    7   26     -0.53      0.00
   -4    7   26     -3.07      0.00
   -3    7   26      0.07      0.00
   -2    7   26     -1.70      0.00
   -1    7   26     -0.96      0.00
    0    7   26      0.24      0.00
    1    7   26     -0.91      0.00
    2    7   26     -0.86      0.00
    3    7   26     -0.89      0.00
    4    7   26      0.15      0.00
   -6    8   26     -1.05      0.00
   -5    8   26      1.25      0.00
   -4    8   26     -0.06      0.00
   -3    8   26      2.14      0.00
   -2    8   26      3.47      0.00
   -1    8   26     -2.10      0.00
    0    8   26      0.75      0.00
    1    8   26      0.16      0.00
    2    8   26      1.26      0.00
    3    8   26      1.57      0.00
   -6    9   26     -1.93      0.00
   -5    9   26     -0.86      0.00
   -4    9   26     -0.75      0.00
   -3    9   26     -0.29      0.00
   -2    9   26     -0.35      0.00
   -1    9   26      0.55      0.00
    0    9   26     -0.66      0.00
    1    9   26      0.35      0.00
    2    9   26     -0.17      0.00
    3    9   26     -1.60      0.00
   -5   10   26      0.91      0.00
   -4   10   26      0.82      0.00
   -3   10   26      1.72      0.00
   -2   10   26      3.25      0.00
   -1   10   26     -0.05      0.00
    0   10   26     -0.23      0.00
    1   10   26     -0.59      0.00
    2   10   26      1.86      0.00
   -4   11   26      0.43      0.00
   -3   11   26     -0.23      0.00
   -2   11   26     -0.76      0.00
   -1   11   26      1.64      0.00
    0   11   26      0.12      0.00
    1   11   26      0.58      0.00
   -7    0   27      1.44      0.00
   -5    0   27     -2.35      0.00
   -3    0   27     -3.75      0.00
   -1    0   27     -1.94      0.00
    1    0   27      1.61      0.00
    3    0   27     -2.05      0.00
   -8    1   27     -1.42      0.00
   -7    1   27      0.24      0.00
   -6    1   27      3.33      0.00
   -5    1   27     -0.56      0.00
   -4    1   27     -1.09      0.00
   -3    1   27      0.43      0.00
   -2    1   27      1.20      0.00
   -1    1   27      0.87      0.00
    0    1   27      0.74      0.00
    1    1   27     -1.16      0.00
    2    1   27     -1.75      0.00
    3    1   27     -0.13      0.00
    4    1   27     -0.51      0.00
   -7    2   27     -0.39      0.00
   -6    2   27     -2.93      0.00
   -5    2   27     -1.84      0.00
   -4    2   27     -0.01      0.00
   -3    2   27     -2.26      0.00
   -2    2   27     -1.11      0.00
   -1    2   27     -2.30      0.00
    0    2   27     -0.44      0.00
    1    2   27      0.69      0.00
    2    2   27     -2.86      0.00
    3    2   27     -0.83      0.00
    4    2   27      1.69      0.00
   -7    3   27      1.65      0.00
   -6    3   27      2.88      0.00
   -5    3   27     -0.91      0.00
   -4    3   27      1.46      0.00
   -3    3   27     -0.08      0.00
   -2    3   27     -0.05      0.00
   -1    3   27     -0.32      0.00
    0    3   27     -0.17      0.00
    1    3   27     -1.82      0.00
    2    3   27     -1.43      0.00
    3    3   27     -1.72      0.00
    4    3   27      0.49      0.00
   -7    4   27     -2.36      0.00
   -6    4   27     -1.17      0.00
   -5    4   27     -1.32      0.00
   -4    4   27     -2.48      0.00
   -3    4   27      0.00      0.00
   -2    4   27     -1.36      0.00
   -1    4   27     -1.45      0.00
    0    4   27     -0.80      0.00
    1    4   27      0.20      0.00
    2    4   27     -2.91      0.00
    3    4   27      1.99      0.00
    4    4   27     -0.07      0.00
   -7    5   27      1.46      0.00
   -6    5   27      0.84      0.00
   -5    5   27      0.06      0.00
   -4    5   27      2.46      0.00
   -3    5   27     -0.20      0.00
   -2    5   27      0.72      0.00
   -1    5   27     -2.76      0.00
    0    5   27      0.14      0.00
    1    5   27      0.06      0.00
    2    5   27     -0.09      0.00
    3    5   27     -3.06      0.00
    4    5   27      0.70      0.00
   -7    6   27     -1.44      0.00
   -6    6   27      0.94      0.00
   -5    6   27     -0.61      0.00
   -4    6   27     -3.87      0.00
   -3    6   27      0.39      0.00
   -2    6   27     -1.24      0.00
   -1    6   27     -0.96      0.00
    0    6   27      0.41      0.00
    1    6   27     -0.23      0.00
    2    6   27     -1.52      0.00
    3    6   27      0.90      0.00
   -6    7   27     -1.96      0.00
   -5    7   27      0.96      0.00
   -4    7   27      0.48      0.00
   -3    7   27      0.88      0.00
   -2    7   27      2.16      0.00
   -1    7   27     -2.83      0.00
    0    7   27      0.50      0.00
    1    7   27      0.46      0.00
    2    7   27      0.57      0.00
    3    7   27     -0.57      0.00
   -6    8   27     -0.61      0.00
   -5    8   27     -0.85      0.00
   -4    8   27     -1.68      0.00
   -3    8   27      0.10      0.00
   -2    8   27     -0.08      0.00
   -1    8   27     -0.28      0.00
    0    8   27      0.29      0.00
    1    8   27     -0.07      0.00
    2    8   27     -0.04      0.00
   -5    9   27      0.94      0.00
   -4    9   27      0.25      0.00
   -3    9   27      1.77      0.00
   -2    9   27      2.34      0.00
   -1    9   27     -1.14      0.00
    0    9   27      0.90      0.00
    1    9   27     -0.84      0.00
   -4   10   27      0.26      0.00
   -3   10   27      0.41      0.00
   -2   10   27     -0.03      0.00
   -1   10   27      1.34      0.00
    0   10   27     -0.25      0.00
   -6    0   28      4.20      0.00
   -4    0   28     -0.51      0.00
   -2    0   28      0.83      0.00
    0    0   28      0.50      0.00
    2    0   28     -0.24      0.00
    4    0   28     -0.63      0.00
   -7    1   28      0.17      0.00
   -6    1   28     -1.50      0.00
   -5    1   28     -2.26      0.00
   -4    1   28      0.22      0.00
   -3    1   28     -2.61      0.00
   -2    1   28     -0.95      0.00
   -1    1   28     -1.42      0.00
    0    1   28      0.14      0.00
    1    1   28      0.28      0.00
    2    1   28     -1.21      0.00
    3    1   28     -1.96      0.00
    4    1   28      1.17      0.00
   -7    2   28      0.42      0.00
   -6    2   28      3.77      0.00
   -5    2   28     -0.91      0.00
   -4    2   28     -0.16      0.00
   -3    2   28      1.03      0.00
   -2    2   28      0.04      0.00
   -1    2   28      0.06      0.00
    0    2   28     -0.15      0.00
    1    2   28     -2.23      0.00
    2    2   28     -0.79      0.00
    3    2   28     -0.55      0.00
   -7    3   28     -1.83      0.00
   -6    3   28     -2.27      0.00
   -5    3   28     -1.30      0.00
   -4    3   28     -0.89      0.00
   -3    3   28     -0.26      0.00
   -2    3   28     -0.60      0.00
   -1    3   28     -1.51      0.00
    0    3   28     -0.58      0.00
    1    3   28      0.04      0.00
    2    3   28     -2.29      0.00
    3    3   28      0.63      0.00
   -6    4   28      2.03      0.00
   -5    4   28     -0.27      0.00
   -4    4   28      1.54      0.00
   -3    4   28     -0.34      0.00
   -2    4   28     -0.27      0.00
   -1    4   28     -2.24      0.00
    0    4   28     -0.60      0.00
    1    4   28     -0.69      0.00
    2    4   28     -0.47      0.00
    3    4   28     -2.39      0.00
   -6    5   28      0.02      0.00
   -5    5   28     -0.70      0.00
   -4    5   28     -3.11      0.00
   -3    5   28      0.81      0.00
   -2    5   28      0.28      0.00
   -1    5   28     -0.41      0.00
    0    5   28     -0.42      0.00
    1    5   28      0.36      0.00
    2    5   28     -1.94      0.00
    3    5   28      1.90      0.00
   -6    6   28     -1.50      0.00
   -5    6   28      0.47      0.00
   -4    6   28      1.30      0.00
   -3    6   28     -0.74      0.00
   -2    6   28      0.73      0.00
   -1    6   28     -3.10      0.00
    0    6   28     -0.54      0.00
    1    6   28      0.81      0.00
    2    6   28      0.35      0.00
   -5    7   28     -0.65      0.00
   -4    7   28     -2.39      0.00
   -3    7   28      0.41      0.00
   -2    7   28      0.30      0.00
   -1    7   28     -0.52      0.00
    0    7   28      0.88      0.00
    1    7   28     -0.04      0.00
    2    7   28     -0.35      0.00
   -4    8   28      0.17      0.00
   -3    8   28      0.53      0.00
   -2    8   28      1.43      0.00
   -1    8   28     -1.75      0.00
    0    8   28      0.71      0.00
    1    8   28     -0.61      0.00
   -3    9   28      0.58      0.00
   -2    9   28      0.58      0.00
   -1    9   28      0.12      0.00
    0    9   28      0.13      0.00
   -5    0   29     -1.71      0.00
   -3    0   29     -1.30      0.00
   -1    0   29     -0.54      0.00
    1    0   29     -0.98      0.00
    3    0   29     -1.81      0.00
   -6    1   29      3.57      0.00
   -5    1   29     -0.73      0.00
   -4    1   29     -0.46      0.00
   -3    1   29      0.88      0.00
   -2    1   29     -0.63      0.00
   -1    1   29      0.09      0.00
    0    1   29      0.38      0.00
    1    1   29     -1.69      0.00
    2    1   29      0.59      0.00
    3    1   29     -0.01      0.00
   -6    2   29     -1.56      0.00
   -5    2   29     -0.95      0.00
   -4    2   29      0.07      0.00
   -3    2   29      0.09      0.00
   -2    2   29     -0.85      0.00
   -1    2   29     -1.29      0.00
    0    2   29      0.10      0.00
    1    2   29     -1.04      0.00
    2    2   29     -1.18      0.00
   -6    3   29      2.76      0.00
   -5    3   29     -0.68      0.00
   -4    3   29     -0.69      0.00
   -3    3   29      0.24      0.00
   -2    3   29     -0.80      0.00
   -1    3   29     -1.16      0.00
    0    3   29     -0.06      0.00
    1    3   29     -1.82      0.00
    2    3   29     -0.37      0.00
   -6    4   29     -1.06      0.00
   -5    4   29     -0.40      0.00
   -4    4   29     -1.45      0.00
   -3    4   29      1.58      0.00
   -2    4   29      1.01      0.00
   -1    4   29     -0.63      0.00
    0    4   29     -0.97      0.00
    1    4   29     -0.18      0.00
    2    4   29     -1.51      0.00
   -5    5   29      0.26      0.00
   -4    5   29      0.55      0.00
   -3    5   29     -1.54      0.00
   -2    5   29     -0.31      0.00
   -1    5   29     -2.52      0.00
    0    5   29     -0.52      0.00
    1    5   29      0.72      0.00
    2    5   29      0.21      0.00
   -5    6   29     -0.44      0.00
   -4    6   29     -2.24      0.00
   -3    6   29      1.09      0.00
   -2    6   29      0.93      0.00
   -1    6   29      0.02      0.00
    0    6   29      0.17      0.00
    1    6   29      0.02      0.00
   -4    7   29      0.40      0.00
   -3    7   29     -1.08      0.00
   -2    7   29      0.53      0.00
   -1    7   29     -1.99      0.00
    0    7   29     -0.23      0.00
   -2    8   29      0.56      0.00
   -1    8   29     -0.58      0.00
   -4    0   30     -0.18      0.00
   -2    0   30     -1.17      0.00
    0    0   30      0.94      0.00
    2    0   30      1.22      0.00
   -5    1   30     -0.22      0.00
   -4    1   30      0.19      0.00
   -3    1   30      0.53      0.00
   -2    1   30     -0.68      0.00
   -1    1   30     -0.94      0.00
    0    1   30      0.28      0.00
    1    1   30     -1.83      0.00
   -5    2   30     -0.93      0.00
   -4    2   30     -1.47      0.00
   -3    2   30      0.57      0.00
   -2    2   30     -0.84      0.00
   -1    2   30     -0.36      0.00
    0    2   30      0.76      0.00
    1    2   30     -2.22      0.00
   -5    3   30      0.31      0.00
   -4    3   30     -0.17      0.00
   -3    3   30      1.83      0.00
   -2    3   30      0.40      0.00
   -1    3   30     -1.61      0.00
    0    3   30     -0.54      0.00
    1    3   30     -1.09      0.00
   -4    4   30     -1.38      0.00
   -3    4   30     -1.24      0.00
   -2    4   30     -0.28      0.00
   -1    4   30     -1.28      0.00
    0    4   30      0.53      0.00
    1    4   30     -0.28      0.00
   -4    5   30     -1.21      0.00
   -3    5   30      1.82      0.00
   -2    5   30      1.26      0.00
   -1    5   30     -0.22      0.00
    0    5   30     -0.80      0.00
   -3    6   30     -1.92      0.00
   -2    6   30      0.08      0.00
   -1    6   30     -1.61      0.00
   -3    0   31      0.72      0.00
   -1    0   31     -0.98      0.00
   -3    1   31      0.33      0.00
   -2    1   31     -0.56      0.00
   -1    1   31     -0.13      0.00
    0    1   31      1.07      0.00
   -3    2   31      1.14      0.00
   -2    2   31     -0.28      0.00
   -1    2   31     -1.91      0.00
   -3    3   31     -0.46      0.00
   -2    3   31      0.31      0.00
   -1    3   31     -0.37      0.00
  -11    0    7      3.51      0.00
   10    0    8      3.80      0.00
  -11    1    8      3.72      0.00
  -11    0    9      4.26      0.00
    9    0    9      0.66      0.00
  -11    1    9     -1.33      0.00
   10    1    9      0.53      0.00
   10    0   10      0.02      0.00
  -11    1   10      2.66      0.00
    9    1   10      0.16      0.00
   10    1   10      0.08      0.00
  -11    2   10     -2.07      0.00
  -11    0   11      1.58      0.00
    7    0   11     -1.03      0.00
    9    0   11      0.83      0.00
  -11    1   11     -1.05      0.00
    9    1   11     -1.64      0.00
   10    1   11     -1.25      0.00
  -11    2   11      0.82      0.00
   10    2   11      0.82      0.00
  -11    3   11     -0.68      0.00
    9    1   12     -0.79      0.00
    9    2   12     -3.23      0.00
    9    0   13     -1.87      0.00
    9    1   13     -2.88      0.00
    9    1   14     -2.51      0.00
    9    0   15     -2.99      0.00
    9    1   15     -1.64      0.00
    0    0    0      0.00      0.00
# SQUEEZE RESULTS (Version = 140621)
# Note: Data are Listed for all Voids in the P1 Unit Cell
# i.e. Centre of Gravity, Solvent Accessible Volume,
# Recovered number of Electrons in the Void and
# Details about the Squeezed Material
loop_
  _platon_squeeze_void_nr
  _platon_squeeze_void_average_x
  _platon_squeeze_void_average_y
  _platon_squeeze_void_average_z
  _platon_squeeze_void_volume
  _platon_squeeze_void_count_electrons
  _platon_squeeze_void_content
   1 -0.025  0.000  0.000       327       108 ' '
   2 -0.013  0.500  0.500       327       108 ' '
_platon_squeeze_void_probe_radius                  1.20
_platon_squeeze_details
)
TITL Giliandro_Metil_Col2_0m_a.res in P2(1)/n
CELL    9.0460   14.9018   22.3980     90.00     98.70     90.00
SPGR P21/n
# Solvent Accessible Volume =       652
# Electrons Found in S.A.V. =       216
# Note: Atoms in Void are Labelled as Cxxx and Qxxx for all Others
C101 0.678 0.111 0.053 !       9.02 eA-3
C102 0.156 0.095 0.027 !       6.74 eA-3
C103 0.964 0.470 0.386 !       6.58 eA-3
C104 0.024 0.060 0.015 !       5.99 eA-3
C105 0.699 1.002 0.111 !       5.12 eA-3
Q106 0.238 0.218 0.455 !       4.79 eA-3
C107 0.816 0.544 0.423 !       3.57 eA-3
C108 0.917 0.454 0.561 !       3.12 eA-3
Q109 0.184 0.674 0.062 !       1.98 eA-3
Q110 0.715 0.189 0.430 !       1.95 eA-3
Q111 0.169 0.674 0.024 !       1.92 eA-3
Q112 0.652 0.111 0.613 !       1.60 eA-3
Q113 0.516 0.686 0.472 !       1.58 eA-3
Q114 0.905 0.159 0.570 !       1.42 eA-3
Q115 0.184 0.750 0.025 !       1.36 eA-3
Q116 1.001 0.406 0.027 !       1.33 eA-3
Q117 0.149 0.393 0.953 !       1.28 eA-3
Q118 0.326 0.390 0.085 !       1.25 eA-3
Q119 0.858 0.685 0.627 !       1.22 eA-3
C120 0.835 0.541 0.473 !       1.16 eA-3
C121 0.795 0.047 0.035 !       1.15 eA-3
C122 0.199 0.926 0.931 !       1.04 eA-3
C123 0.719 0.502 0.477 !       1.02 eA-3
Q124 0.247 0.920 0.388 !       1.00 eA-3
Q125 0.626 0.781 0.538 !       0.97 eA-3
Q126 0.870 0.575 0.216 !       0.96 eA-3
Q127 0.829 0.485 0.953 !       0.94 eA-3
C128 0.619 0.135 0.084 !       0.92 eA-3
Q129 0.286 0.659 0.045 !       0.90 eA-3
Q130 0.058 0.860 0.595 !       0.87 eA-3
Q131 0.686 0.017 0.205 !       0.87 eA-3
Q132 0.828 0.280 0.862 !       0.84 eA-3
C133 0.744 0.051-0.002 !       0.83 eA-3
Q134 0.137 0.634 0.061 !       0.83 eA-3
Q135 0.879 0.060 0.618 !       0.82 eA-3
Q136 0.115 0.811 0.590 !       0.82 eA-3
Q137 0.414 0.192 0.421 !       0.80 eA-3
C138 0.846 0.953 0.068 !       0.79 eA-3
Q139 0.900 0.671 0.055 !       0.79 eA-3
Q140 0.050 0.795 0.873 !       0.78 eA-3
Q141 0.905 0.842 0.749 !       0.77 eA-3
Q142 0.656 0.392 0.877 !       0.77 eA-3
Q143 0.189 0.267 0.464 !       0.76 eA-3
Q144 0.286 0.360 0.581 !       0.76 eA-3
Q145 0.067 0.034 0.625 !       0.76 eA-3
C146 0.740 0.952 0.055 !       0.76 eA-3
C147 0.127 0.565 0.557 !       0.75 eA-3
C148 0.537 0.982 0.969 !       0.75 eA-3
Q149 0.027 0.890 0.194 !       0.74 eA-3
Q150 0.294 0.205 0.546 !       0.74 eA-3
Q151 0.028 0.407 0.086 !       0.74 eA-3
Q152 0.341 0.564 0.101 !       0.73 eA-3
Q153 0.072 0.967 0.634 !       0.73 eA-3
Q154 0.842 0.238 0.924 !       0.72 eA-3
Q155 0.876 0.922 0.790 !       0.72 eA-3
Q156 0.691 0.779 0.273 !       0.72 eA-3
Q157 0.999 0.122 0.850 !       0.71 eA-3
Q158 0.573 0.752 0.564 !       0.70 eA-3
Q159 0.333 0.672 0.034 !       0.70 eA-3
Q160 0.499 0.467 0.705 !       0.70 eA-3
Q161 0.164 0.342 0.151 !       0.69 eA-3
Q162 0.868 0.652 0.382 !       0.69 eA-3
Q163 0.486 0.497 0.805 !       0.69 eA-3
Q164 0.680 0.231 0.030 !       0.69 eA-3
Q165 0.567 0.282 0.907 !       0.69 eA-3
C166 0.485 0.125 0.012 !       0.69 eA-3
Q167 0.739 0.408 0.843 !       0.69 eA-3
Q168 0.088 0.656 0.805 !       0.69 eA-3
Q169 0.269 0.718 0.584 !       0.69 eA-3
Q170 0.152 0.236 0.438 !       0.68 eA-3
Q171 0.342 0.109 0.147 !       0.68 eA-3
Q172 0.836 0.439 0.994 !       0.68 eA-3
Q173 0.035 1.000 0.367 !       0.68 eA-3
Q174 0.696 0.436 0.616 !       0.68 eA-3
C175 0.468 0.021 0.846 !       0.67 eA-3
Q176 0.442 0.611 0.115 !       0.67 eA-3
Q177 0.652 0.499 0.275 !       0.67 eA-3
Q178 0.842 0.780 0.054 !       0.67 eA-3
Q179 0.291 0.908 0.351 !       0.67 eA-3
Q180 0.668 0.391 0.111 !       0.67 eA-3
Q181 0.947 0.498 0.944 !       0.67 eA-3
Q182 1.003 0.282 0.961 !       0.67 eA-3
Q183 0.397 0.797 0.569 !       0.67 eA-3
Q184 0.428 0.375 0.956 !       0.67 eA-3
Q185 0.070 0.093 0.417 !       0.66 eA-3
Q186 0.044 0.376 0.438 !       0.66 eA-3
Q187 0.528 0.048 0.543 !       0.66 eA-3
Q188 0.229 0.218 0.491 !       0.66 eA-3
Q189 0.643 0.435 0.861 !       0.66 eA-3
Q190 0.754 0.186 0.227 !       0.65 eA-3
Q191 0.534 0.314 0.362 !       0.65 eA-3
Q192 0.174 0.365 0.518 !       0.65 eA-3
Q193 0.790 1.004 0.446 !       0.65 eA-3
Q194 0.879 0.499 0.641 !       0.65 eA-3
Q195 0.352 0.641 0.093 !       0.64 eA-3
Q196 0.067 0.077 0.350 !       0.64 eA-3
Q197 0.408 0.497 0.922 !       0.64 eA-3
Q198 0.851 0.218 0.299 !       0.64 eA-3
Q199 0.952 0.265 0.299 !       0.64 eA-3
)
;
_shelx_fab_checksum              33587

_exptl_crystal_recrystallization_method 
'Re-crystallisation from solvent: dichloromethane'
####################################################################### 
# 
# This file contains crystal structure data downloaded from the 
# Cambridge Structural Database (CSD) hosted by the Cambridge 
# Crystallographic Data Centre (CCDC).
# 
# Full information about CCDC data access policies and citation 
# guidelines are available at http://www.ccdc.cam.ac.uk/access/V1 
# 
# Audit and citation data items may have been added by the CCDC. 
# Please retain this information to preserve the provenance of 
# this file and to allow appropriate attribution of the data. 
# 
#######################################################################

data_Complex1_CCDC1
_database_code_depnum_ccdc_archive 'CCDC 2102897'
loop_
_audit_author_name
_audit_author_address
'Adailton Bortoluzzi'
;Universidade Federal de Santa Catarina
Brazil
;
_audit_update_record             
;
2021-08-12 deposited with the CCDC.	2021-12-06 downloaded from the CCDC.
;

_audit_creation_method           SHELXL-2018/3
_shelx_SHELXL_version_number     2018/3
_chemical_name_systematic        ?
_chemical_name_common            ?
_chemical_melting_point          ?
_chemical_formula_moiety         'C32 H26 Cu I N3 P'
_chemical_formula_sum            'C32 H26 Cu I N3 P'
_chemical_formula_weight         673.97

loop_
_atom_type_symbol
_atom_type_description
_atom_type_scat_dispersion_real
_atom_type_scat_dispersion_imag
_atom_type_scat_source
C C 0.0033 0.0016 'International Tables Vol C Tables 4.2.6.8 and 6.1.1.4'
H H 0.0000 0.0000 'International Tables Vol C Tables 4.2.6.8 and 6.1.1.4'
Cu Cu 0.3201 1.2651 'International Tables Vol C Tables 4.2.6.8 and 6.1.1.4'
I I -0.4742 1.8119 'International Tables Vol C Tables 4.2.6.8 and 6.1.1.4'
N N 0.0061 0.0033 'International Tables Vol C Tables 4.2.6.8 and 6.1.1.4'
P P 0.1023 0.0942 'International Tables Vol C Tables 4.2.6.8 and 6.1.1.4'

_space_group_crystal_system      monoclinic
_space_group_IT_number           15
_space_group_name_H-M_alt        'C 2/c'
_space_group_name_Hall           '-C 2yc'

_shelx_space_group_comment       
;
The symmetry employed for this shelxl refinement is uniquely defined
by the following loop, which should always be used as a source of
symmetry information in preference to the above space-group names.
They are only intended as comments.
;

loop_
_space_group_symop_operation_xyz
'x, y, z'
'-x, y, -z+1/2'
'x+1/2, y+1/2, z'
'-x+1/2, y+1/2, -z+1/2'
'-x, -y, -z'
'x, -y, z-1/2'
'-x+1/2, -y+1/2, -z'
'x+1/2, -y+1/2, z-1/2'

_cell_length_a                   25.4203(15)
_cell_length_b                   9.3752(5)
_cell_length_c                   24.4816(16)
_cell_angle_alpha                90
_cell_angle_beta                 91.257(2)
_cell_angle_gamma                90
_cell_volume                     5833.1(6)
_cell_formula_units_Z            8
_cell_measurement_temperature    200(2)
_cell_measurement_reflns_used    9461
_cell_measurement_theta_min      2.29
_cell_measurement_theta_max      28.32

_exptl_crystal_description       prismatic
_exptl_crystal_colour            yellow
_exptl_crystal_density_meas      ?
_exptl_crystal_density_method    ?
_exptl_crystal_density_diffrn    1.535
_exptl_crystal_F_000             2688
_exptl_transmission_factor_min   ?
_exptl_transmission_factor_max   ?
_exptl_crystal_size_max          0.300
_exptl_crystal_size_mid          0.200
_exptl_crystal_size_min          0.080
_exptl_absorpt_coefficient_mu    1.888
_shelx_estimated_absorpt_T_min   0.601
_shelx_estimated_absorpt_T_max   0.864
_exptl_absorpt_correction_type   multi-scan
_exptl_absorpt_correction_T_min  0.5513
_exptl_absorpt_correction_T_max  0.7458
_exptl_absorpt_process_details   
;
 SADABS 2016/2: Krause, L., Herbst-Irmer, R., Sheldrick G.M. & Stalke D.,
 J. Appl. Cryst. 48 (2015) 3-10
;
_diffrn_ambient_temperature      200(2)
_diffrn_radiation_wavelength     0.71073
_diffrn_radiation_type           MoK\a
_diffrn_radiation_source         'fine-focus sealed tube'
_diffrn_radiation_monochromator  graphite
_diffrn_measurement_device_type  'Bruker APEX-II CCD'
_diffrn_measurement_method       '\f and \w scans'
_diffrn_detector_area_resol_mean ?
_diffrn_reflns_number            33330
_diffrn_reflns_av_unetI/netI     0.0520
_diffrn_reflns_av_R_equivalents  0.0579
_diffrn_reflns_limit_h_min       -34
_diffrn_reflns_limit_h_max       34
_diffrn_reflns_limit_k_min       -8
_diffrn_reflns_limit_k_max       12
_diffrn_reflns_limit_l_min       -33
_diffrn_reflns_limit_l_max       33
_diffrn_reflns_theta_min         1.603
_diffrn_reflns_theta_max         29.218
_diffrn_reflns_theta_full        25.242
_diffrn_measured_fraction_theta_max 0.992
_diffrn_measured_fraction_theta_full 0.998
_diffrn_reflns_Laue_measured_fraction_max 0.992
_diffrn_reflns_Laue_measured_fraction_full 0.998
_diffrn_reflns_point_group_measured_fraction_max 0.992
_diffrn_reflns_point_group_measured_fraction_full 0.998
_reflns_number_total             7848
_reflns_number_gt                6055
_reflns_threshold_expression     'I > 2\s(I)'
_reflns_Friedel_coverage         0.000
_reflns_Friedel_fraction_max     .
_reflns_Friedel_fraction_full    .

_reflns_special_details          
;
 Reflections were merged by SHELXL according to the crystal
 class for the calculation of statistics and refinement.
 
 _reflns_Friedel_fraction is defined as the number of unique
 Friedel pairs measured divided by the number that would be
 possible theoretically, ignoring centric projections and
 systematic absences.
;

_computing_data_collection       'Bruker APEX2'
_computing_cell_refinement       'Bruker SAINT'
_computing_data_reduction        'Bruker SAINT'
_computing_structure_solution    'SHELXT 2014/5 (Sheldrick, 2014)'
_computing_structure_refinement  'SHELXL-2018/3 (Sheldrick, 2018)'
_computing_molecular_graphics    'PLATON (Spek, 2009)'
_computing_publication_material  'SHELXL-2018/3 (Sheldrick, 2018)'
_refine_special_details          ?
_refine_ls_structure_factor_coef Fsqd
_refine_ls_matrix_type           full
_refine_ls_weighting_scheme      calc
_refine_ls_weighting_details     
'w=1/[\s^2^(Fo^2^)+(0.0316P)^2^+35.2535P] where P=(Fo^2^+2Fc^2^)/3'
_atom_sites_solution_primary     dual-space
_atom_sites_solution_secondary   diffmap
_atom_sites_solution_hydrogens   geom
_refine_ls_hydrogen_treatment    constr
_refine_ls_extinction_method     none
_refine_ls_extinction_coef       .
_refine_ls_number_reflns         7848
_refine_ls_number_parameters     343
_refine_ls_number_restraints     0
_refine_ls_R_factor_all          0.0778
_refine_ls_R_factor_gt           0.0550
_refine_ls_wR_factor_ref         0.1198
_refine_ls_wR_factor_gt          0.1102
_refine_ls_goodness_of_fit_ref   1.128
_refine_ls_restrained_S_all      1.128
_refine_ls_shift/su_max          0.001
_refine_ls_shift/su_mean         0.000

loop_
_atom_site_label
_atom_site_type_symbol
_atom_site_fract_x
_atom_site_fract_y
_atom_site_fract_z
_atom_site_U_iso_or_equiv
_atom_site_adp_type
_atom_site_occupancy
_atom_site_site_symmetry_order
_atom_site_calc_flag
_atom_site_refinement_flags_posn
_atom_site_refinement_flags_adp
_atom_site_refinement_flags_occupancy
_atom_site_disorder_assembly
_atom_site_disorder_group
Cu1 Cu 0.33932(2) 0.54967(6) 0.41164(2) 0.02587(12) Uani 1 1 d . . . . .
I1 I 0.36278(2) 0.38885(3) 0.49586(2) 0.03376(9) Uani 1 1 d . . . . .
N1 N 0.32716(12) 0.7596(4) 0.43306(13) 0.0214(7) Uani 1 1 d . . . . .
N2 N 0.35517(12) 0.8810(4) 0.43996(14) 0.0242(7) Uani 1 1 d . . . . .
C3 C 0.32325(18) 0.9959(5) 0.44513(18) 0.0318(9) Uani 1 1 d . . . . .
H3 H 0.334065 1.091891 0.450621 0.038 Uiso 1 1 calc R U . . .
C4 C 0.27260(17) 0.9475(5) 0.44097(18) 0.0310(9) Uani 1 1 d . . . . .
H4 H 0.241303 1.002568 0.442794 0.037 Uiso 1 1 calc R U . . .
C5 C 0.27648(14) 0.8008(4) 0.43349(15) 0.0223(8) Uani 1 1 d . . . . .
C6 C 0.41160(15) 0.8748(5) 0.44343(17) 0.0265(8) Uani 1 1 d . . . . .
C7 C 0.43556(16) 0.7653(5) 0.47218(19) 0.0327(10) Uani 1 1 d . . . . .
H7 H 0.415047 0.694699 0.489616 0.039 Uiso 1 1 calc R U . . .
C8 C 0.49039(17) 0.7599(5) 0.4753(2) 0.0399(11) Uani 1 1 d . . . . .
H8 H 0.507401 0.684455 0.494618 0.048 Uiso 1 1 calc R U . . .
C9 C 0.51992(18) 0.8632(6) 0.4505(2) 0.0457(13) Uani 1 1 d . . . . .
H9 H 0.557244 0.858659 0.452495 0.055 Uiso 1 1 calc R U . . .
C10 C 0.4955(2) 0.9725(7) 0.4228(2) 0.0541(15) Uani 1 1 d . . . . .
H10 H 0.516190 1.044116 0.406154 0.065 Uiso 1 1 calc R U . . .
C11 C 0.44074(19) 0.9803(6) 0.4188(2) 0.0425(12) Uani 1 1 d . . . . .
H11 H 0.423903 1.056191 0.399531 0.051 Uiso 1 1 calc R U . . .
C12 C 0.23686(14) 0.6889(5) 0.42596(14) 0.0222(8) Uani 1 1 d . . . . .
N12 N 0.25621(12) 0.5599(4) 0.41298(14) 0.0255(7) Uani 1 1 d . . . . .
C13 C 0.22217(16) 0.4511(5) 0.4064(2) 0.0343(10) Uani 1 1 d . . . . .
H13 H 0.235663 0.359639 0.397563 0.041 Uiso 1 1 calc R U . . .
C14 C 0.16826(17) 0.4662(6) 0.4119(2) 0.0386(11) Uani 1 1 d . . . . .
H14 H 0.145303 0.387098 0.406983 0.046 Uiso 1 1 calc R U . . .
C15 C 0.14892(15) 0.5988(6) 0.42474(18) 0.0357(11) Uani 1 1 d . . . . .
H15 H 0.112131 0.612245 0.428462 0.043 Uiso 1 1 calc R U . . .
C16 C 0.18315(15) 0.7130(5) 0.43225(16) 0.0283(9) Uani 1 1 d . . . . .
H16 H 0.170356 0.804941 0.441410 0.034 Uiso 1 1 calc R U . . .
P1 P 0.37951(4) 0.49596(12) 0.33583(4) 0.0242(2) Uani 1 1 d . . . . .
C21 C 0.33951(15) 0.3691(4) 0.29589(17) 0.0256(8) Uani 1 1 d . . . . .
C22 C 0.3277(2) 0.3841(6) 0.2409(2) 0.0444(12) Uani 1 1 d . . . . .
H22 H 0.342249 0.460683 0.220860 0.053 Uiso 1 1 calc R U . . .
C23 C 0.2941(2) 0.2861(8) 0.2150(2) 0.0596(17) Uani 1 1 d . . . . .
H23 H 0.285911 0.296708 0.177138 0.072 Uiso 1 1 calc R U . . .
C24 C 0.2727(2) 0.1752(7) 0.2432(3) 0.0574(16) Uani 1 1 d . . . . .
H24 H 0.250326 0.108666 0.224877 0.069 Uiso 1 1 calc R U . . .
C25 C 0.2838(2) 0.1600(6) 0.2982(3) 0.0541(15) Uani 1 1 d . . . . .
H25 H 0.268734 0.083994 0.318171 0.065 Uiso 1 1 calc R U . . .
C26 C 0.31729(19) 0.2574(5) 0.3241(2) 0.0387(11) Uani 1 1 d . . . . .
H26 H 0.325036 0.246881 0.362049 0.046 Uiso 1 1 calc R U . . .
C31 C 0.39343(16) 0.6402(5) 0.28782(18) 0.0303(9) Uani 1 1 d . . . . .
C32 C 0.3679(2) 0.7690(6) 0.2932(2) 0.0468(13) Uani 1 1 d . . . . .
H32 H 0.343347 0.781778 0.321531 0.056 Uiso 1 1 calc R U . . .
C33 C 0.3778(3) 0.8791(7) 0.2578(3) 0.0659(18) Uani 1 1 d . . . . .
H33 H 0.360526 0.968010 0.262483 0.079 Uiso 1 1 calc R U . . .
C34 C 0.4121(3) 0.8631(6) 0.2157(3) 0.0574(16) Uani 1 1 d . . . . .
H34 H 0.417842 0.939349 0.191002 0.069 Uiso 1 1 calc R U . . .
C35 C 0.4380(2) 0.7362(7) 0.2097(3) 0.0619(17) Uani 1 1 d . . . . .
H35 H 0.462179 0.724448 0.180993 0.074 Uiso 1 1 calc R U . . .
C36 C 0.4288(2) 0.6245(6) 0.2456(2) 0.0513(14) Uani 1 1 d . . . . .
H36 H 0.446804 0.536628 0.241227 0.062 Uiso 1 1 calc R U . . .
C41 C 0.44362(16) 0.4101(5) 0.34250(18) 0.0308(10) Uani 1 1 d . . . . .
C42 C 0.48065(19) 0.4760(7) 0.3762(2) 0.0505(14) Uani 1 1 d . . . . .
H42 H 0.471076 0.557340 0.396857 0.061 Uiso 1 1 calc R U . . .
C43 C 0.5319(2) 0.4238(8) 0.3799(3) 0.0652(19) Uani 1 1 d . . . . .
H43 H 0.557276 0.470753 0.402640 0.078 Uiso 1 1 calc R U . . .
C44 C 0.5459(2) 0.3052(8) 0.3512(3) 0.067(2) Uani 1 1 d . . . . .
H44 H 0.581117 0.271192 0.353018 0.080 Uiso 1 1 calc R U . . .
C45 C 0.5090(2) 0.2363(7) 0.3198(2) 0.0613(18) Uani 1 1 d . . . . .
H45 H 0.518374 0.152035 0.300870 0.074 Uiso 1 1 calc R U . . .
C46 C 0.4576(2) 0.2875(6) 0.3151(2) 0.0447(13) Uani 1 1 d . . . . .
H46 H 0.432261 0.238193 0.293179 0.054 Uiso 1 1 calc R U . . .

loop_
_atom_site_aniso_label
_atom_site_aniso_U_11
_atom_site_aniso_U_22
_atom_site_aniso_U_33
_atom_site_aniso_U_23
_atom_site_aniso_U_13
_atom_site_aniso_U_12
Cu1 0.0184(2) 0.0270(3) 0.0324(3) -0.0087(2) 0.00512(18) 0.00113(19)
I1 0.03092(14) 0.02363(16) 0.04671(18) 0.00252(13) 0.00016(11) 0.00170(12)
N1 0.0181(14) 0.0208(18) 0.0254(16) -0.0012(13) 0.0034(12) -0.0016(12)
N2 0.0243(15) 0.0183(18) 0.0302(17) 0.0009(14) 0.0017(12) -0.0020(13)
C3 0.042(2) 0.017(2) 0.036(2) 0.0019(18) 0.0004(18) 0.0034(18)
C4 0.031(2) 0.027(2) 0.034(2) 0.0025(18) 0.0002(17) 0.0111(18)
C5 0.0226(17) 0.025(2) 0.0189(17) 0.0007(15) 0.0021(13) 0.0029(15)
C6 0.0216(17) 0.026(2) 0.032(2) -0.0031(17) 0.0009(15) -0.0083(16)
C7 0.0223(19) 0.028(3) 0.047(3) 0.003(2) 0.0030(17) -0.0039(17)
C8 0.026(2) 0.031(3) 0.062(3) -0.002(2) 0.000(2) 0.0009(18)
C9 0.022(2) 0.051(4) 0.064(3) -0.001(3) 0.002(2) -0.012(2)
C10 0.037(3) 0.060(4) 0.065(4) 0.013(3) 0.004(2) -0.028(3)
C11 0.038(2) 0.038(3) 0.052(3) 0.012(2) -0.004(2) -0.015(2)
C12 0.0195(16) 0.031(2) 0.0162(17) 0.0016(15) 0.0016(13) 0.0034(15)
N12 0.0187(14) 0.027(2) 0.0304(18) -0.0023(14) 0.0039(12) -0.0006(13)
C13 0.026(2) 0.030(3) 0.047(3) -0.006(2) 0.0043(18) -0.0048(18)
C14 0.025(2) 0.044(3) 0.047(3) -0.001(2) 0.0003(18) -0.013(2)
C15 0.0144(16) 0.056(3) 0.036(2) 0.008(2) -0.0010(15) -0.0034(18)
C16 0.0213(18) 0.036(3) 0.027(2) 0.0061(18) 0.0040(14) 0.0056(17)
P1 0.0208(4) 0.0246(6) 0.0275(5) -0.0052(4) 0.0041(4) 0.0028(4)
C21 0.0215(17) 0.024(2) 0.031(2) -0.0079(17) 0.0027(14) 0.0046(15)
C22 0.043(3) 0.056(4) 0.034(2) -0.009(2) 0.002(2) -0.001(2)
C23 0.059(3) 0.081(5) 0.038(3) -0.021(3) -0.011(2) -0.004(3)
C24 0.043(3) 0.055(4) 0.074(4) -0.034(3) 0.000(3) -0.012(3)
C25 0.054(3) 0.042(3) 0.067(4) -0.015(3) 0.009(3) -0.016(3)
C26 0.042(2) 0.032(3) 0.043(3) -0.009(2) 0.001(2) -0.005(2)
C31 0.027(2) 0.028(3) 0.036(2) 0.0000(18) 0.0025(16) -0.0014(16)
C32 0.050(3) 0.040(3) 0.051(3) 0.002(2) 0.006(2) 0.014(2)
C33 0.093(5) 0.038(4) 0.067(4) 0.008(3) 0.006(4) 0.020(3)
C34 0.067(4) 0.041(4) 0.065(4) 0.023(3) -0.001(3) -0.009(3)
C35 0.057(3) 0.059(4) 0.071(4) 0.024(3) 0.028(3) 0.006(3)
C36 0.049(3) 0.042(3) 0.064(4) 0.013(3) 0.024(3) 0.011(2)
C41 0.0249(19) 0.036(3) 0.031(2) 0.0049(18) 0.0042(15) 0.0053(17)
C42 0.031(2) 0.062(4) 0.058(3) -0.003(3) -0.005(2) -0.001(2)
C43 0.032(3) 0.093(6) 0.070(4) 0.023(4) -0.010(3) -0.003(3)
C44 0.033(3) 0.106(6) 0.062(4) 0.046(4) 0.011(3) 0.029(3)
C45 0.057(3) 0.074(5) 0.053(3) 0.017(3) 0.018(3) 0.044(3)
C46 0.047(3) 0.049(3) 0.038(3) 0.003(2) 0.005(2) 0.024(2)

_geom_special_details            
;
 All esds (except the esd in the dihedral angle between two l.s. planes)
 are estimated using the full covariance matrix.  The cell esds are taken
 into account individually in the estimation of esds in distances, angles
 and torsion angles; correlations between esds in cell parameters are only
 used when they are defined by crystal symmetry.  An approximate (isotropic)
 treatment of cell esds is used for estimating esds involving l.s. planes.
;

loop_
_geom_bond_atom_site_label_1
_geom_bond_atom_site_label_2
_geom_bond_distance
_geom_bond_site_symmetry_2
_geom_bond_publ_flag
Cu1 N1 2.062(3) . y
Cu1 N12 2.116(3) . y
Cu1 P1 2.1968(11) . y
Cu1 I1 2.6127(6) . y
N1 C5 1.345(5) . ?
N1 N2 1.351(5) . ?
N2 C3 1.356(5) . ?
N2 C6 1.436(5) . ?
C3 C4 1.367(6) . ?
C3 H3 0.9500 . ?
C4 C5 1.392(6) . ?
C4 H4 0.9500 . ?
C5 C12 1.463(6) . ?
C6 C7 1.379(6) . ?
C6 C11 1.382(6) . ?
C7 C8 1.395(6) . ?
C7 H7 0.9500 . ?
C8 C9 1.375(7) . ?
C8 H8 0.9500 . ?
C9 C10 1.369(8) . ?
C9 H9 0.9500 . ?
C10 C11 1.396(7) . ?
C10 H10 0.9500 . ?
C11 H11 0.9500 . ?
C12 N12 1.346(5) . ?
C12 C16 1.396(5) . ?
N12 C13 1.345(5) . ?
C13 C14 1.387(6) . ?
C13 H13 0.9500 . ?
C14 C15 1.375(7) . ?
C14 H14 0.9500 . ?
C15 C16 1.390(6) . ?
C15 H15 0.9500 . ?
C16 H16 0.9500 . ?
P1 C41 1.822(4) . ?
P1 C31 1.831(5) . ?
P1 C21 1.834(4) . ?
C21 C22 1.379(6) . ?
C21 C26 1.382(6) . ?
C22 C23 1.398(8) . ?
C22 H22 0.9500 . ?
C23 C24 1.367(9) . ?
C23 H23 0.9500 . ?
C24 C25 1.376(9) . ?
C24 H24 0.9500 . ?
C25 C26 1.393(7) . ?
C25 H25 0.9500 . ?
C26 H26 0.9500 . ?
C31 C32 1.379(7) . ?
C31 C36 1.393(6) . ?
C32 C33 1.375(8) . ?
C32 H32 0.9500 . ?
C33 C34 1.372(9) . ?
C33 H33 0.9500 . ?
C34 C35 1.369(9) . ?
C34 H34 0.9500 . ?
C35 C36 1.389(8) . ?
C35 H35 0.9500 . ?
C36 H36 0.9500 . ?
C41 C46 1.381(7) . ?
C41 C42 1.383(7) . ?
C42 C43 1.393(7) . ?
C42 H42 0.9500 . ?
C43 C44 1.367(10) . ?
C43 H43 0.9500 . ?
C44 C45 1.363(10) . ?
C44 H44 0.9500 . ?
C45 C46 1.394(7) . ?
C45 H45 0.9500 . ?
C46 H46 0.9500 . ?

loop_
_geom_angle_atom_site_label_1
_geom_angle_atom_site_label_2
_geom_angle_atom_site_label_3
_geom_angle
_geom_angle_site_symmetry_1
_geom_angle_site_symmetry_3
_geom_angle_publ_flag
N1 Cu1 N12 78.32(13) . . y
N1 Cu1 P1 120.58(9) . . y
N12 Cu1 P1 120.43(10) . . y
N1 Cu1 I1 112.52(9) . . y
N12 Cu1 I1 102.98(10) . . y
P1 Cu1 I1 115.60(4) . . y
C5 N1 N2 105.0(3) . . ?
C5 N1 Cu1 115.1(3) . . ?
N2 N1 Cu1 139.0(2) . . ?
N1 N2 C3 111.5(3) . . ?
N1 N2 C6 119.8(3) . . ?
C3 N2 C6 128.7(4) . . ?
N2 C3 C4 107.1(4) . . ?
N2 C3 H3 126.4 . . ?
C4 C3 H3 126.4 . . ?
C3 C4 C5 105.6(4) . . ?
C3 C4 H4 127.2 . . ?
C5 C4 H4 127.2 . . ?
N1 C5 C4 110.8(4) . . ?
N1 C5 C12 116.7(3) . . ?
C4 C5 C12 132.5(4) . . ?
C7 C6 C11 121.4(4) . . ?
C7 C6 N2 119.3(4) . . ?
C11 C6 N2 119.3(4) . . ?
C6 C7 C8 119.0(4) . . ?
C6 C7 H7 120.5 . . ?
C8 C7 H7 120.5 . . ?
C9 C8 C7 120.3(5) . . ?
C9 C8 H8 119.8 . . ?
C7 C8 H8 119.8 . . ?
C10 C9 C8 120.0(4) . . ?
C10 C9 H9 120.0 . . ?
C8 C9 H9 120.0 . . ?
C9 C10 C11 121.0(5) . . ?
C9 C10 H10 119.5 . . ?
C11 C10 H10 119.5 . . ?
C6 C11 C10 118.4(5) . . ?
C6 C11 H11 120.8 . . ?
C10 C11 H11 120.8 . . ?
N12 C12 C16 122.3(4) . . ?
N12 C12 C5 114.8(3) . . ?
C16 C12 C5 122.8(4) . . ?
C13 N12 C12 118.2(3) . . ?
C13 N12 Cu1 127.1(3) . . ?
C12 N12 Cu1 114.5(3) . . ?
N12 C13 C14 123.0(4) . . ?
N12 C13 H13 118.5 . . ?
C14 C13 H13 118.5 . . ?
C15 C14 C13 118.3(4) . . ?
C15 C14 H14 120.9 . . ?
C13 C14 H14 120.9 . . ?
C14 C15 C16 120.0(4) . . ?
C14 C15 H15 120.0 . . ?
C16 C15 H15 120.0 . . ?
C15 C16 C12 118.1(4) . . ?
C15 C16 H16 120.9 . . ?
C12 C16 H16 120.9 . . ?
C41 P1 C31 101.47(19) . . ?
C41 P1 C21 104.2(2) . . ?
C31 P1 C21 104.4(2) . . ?
C41 P1 Cu1 117.21(15) . . ?
C31 P1 Cu1 118.23(15) . . ?
C21 P1 Cu1 109.66(13) . . ?
C22 C21 C26 118.9(4) . . ?
C22 C21 P1 124.1(4) . . ?
C26 C21 P1 116.9(3) . . ?
C21 C22 C23 119.6(5) . . ?
C21 C22 H22 120.2 . . ?
C23 C22 H22 120.2 . . ?
C24 C23 C22 121.0(5) . . ?
C24 C23 H23 119.5 . . ?
C22 C23 H23 119.5 . . ?
C23 C24 C25 119.9(5) . . ?
C23 C24 H24 120.1 . . ?
C25 C24 H24 120.1 . . ?
C24 C25 C26 119.2(6) . . ?
C24 C25 H25 120.4 . . ?
C26 C25 H25 120.4 . . ?
C21 C26 C25 121.4(5) . . ?
C21 C26 H26 119.3 . . ?
C25 C26 H26 119.3 . . ?
C32 C31 C36 118.4(5) . . ?
C32 C31 P1 119.2(4) . . ?
C36 C31 P1 122.4(4) . . ?
C33 C32 C31 120.2(5) . . ?
C33 C32 H32 119.9 . . ?
C31 C32 H32 119.9 . . ?
C34 C33 C32 121.3(6) . . ?
C34 C33 H33 119.4 . . ?
C32 C33 H33 119.4 . . ?
C35 C34 C33 119.4(5) . . ?
C35 C34 H34 120.3 . . ?
C33 C34 H34 120.3 . . ?
C34 C35 C36 119.9(5) . . ?
C34 C35 H35 120.1 . . ?
C36 C35 H35 120.1 . . ?
C35 C36 C31 120.7(5) . . ?
C35 C36 H36 119.6 . . ?
C31 C36 H36 119.6 . . ?
C46 C41 C42 118.8(4) . . ?
C46 C41 P1 124.3(4) . . ?
C42 C41 P1 116.9(4) . . ?
C41 C42 C43 120.4(6) . . ?
C41 C42 H42 119.8 . . ?
C43 C42 H42 119.8 . . ?
C44 C43 C42 120.4(6) . . ?
C44 C43 H43 119.8 . . ?
C42 C43 H43 119.8 . . ?
C45 C44 C43 119.4(5) . . ?
C45 C44 H44 120.3 . . ?
C43 C44 H44 120.3 . . ?
C44 C45 C46 121.1(6) . . ?
C44 C45 H45 119.5 . . ?
C46 C45 H45 119.5 . . ?
C41 C46 C45 119.8(6) . . ?
C41 C46 H46 120.1 . . ?
C45 C46 H46 120.1 . . ?

loop_
_geom_torsion_atom_site_label_1
_geom_torsion_atom_site_label_2
_geom_torsion_atom_site_label_3
_geom_torsion_atom_site_label_4
_geom_torsion
_geom_torsion_site_symmetry_1
_geom_torsion_site_symmetry_2
_geom_torsion_site_symmetry_3
_geom_torsion_site_symmetry_4
_geom_torsion_publ_flag
C5 N1 N2 C3 0.5(4) . . . . ?
Cu1 N1 N2 C3 168.7(3) . . . . ?
C5 N1 N2 C6 177.8(3) . . . . ?
Cu1 N1 N2 C6 -14.0(6) . . . . ?
N1 N2 C3 C4 -0.5(5) . . . . ?
C6 N2 C3 C4 -177.5(4) . . . . ?
N2 C3 C4 C5 0.3(5) . . . . ?
N2 N1 C5 C4 -0.4(4) . . . . ?
Cu1 N1 C5 C4 -171.8(3) . . . . ?
N2 N1 C5 C12 179.2(3) . . . . ?
Cu1 N1 C5 C12 7.7(4) . . . . ?
C3 C4 C5 N1 0.0(5) . . . . ?
C3 C4 C5 C12 -179.4(4) . . . . ?
N1 N2 C6 C7 -39.9(5) . . . . ?
C3 N2 C6 C7 136.8(5) . . . . ?
N1 N2 C6 C11 141.3(4) . . . . ?
C3 N2 C6 C11 -42.0(6) . . . . ?
C11 C6 C7 C8 -1.4(7) . . . . ?
N2 C6 C7 C8 179.9(4) . . . . ?
C6 C7 C8 C9 0.7(8) . . . . ?
C7 C8 C9 C10 0.4(8) . . . . ?
C8 C9 C10 C11 -0.8(9) . . . . ?
C7 C6 C11 C10 1.0(8) . . . . ?
N2 C6 C11 C10 179.8(5) . . . . ?
C9 C10 C11 C6 0.1(9) . . . . ?
N1 C5 C12 N12 -7.5(5) . . . . ?
C4 C5 C12 N12 171.9(4) . . . . ?
N1 C5 C12 C16 171.8(4) . . . . ?
C4 C5 C12 C16 -8.7(7) . . . . ?
C16 C12 N12 C13 -0.5(6) . . . . ?
C5 C12 N12 C13 178.8(4) . . . . ?
C16 C12 N12 Cu1 -175.8(3) . . . . ?
C5 C12 N12 Cu1 3.6(4) . . . . ?
C12 N12 C13 C14 0.6(7) . . . . ?
Cu1 N12 C13 C14 175.1(4) . . . . ?
N12 C13 C14 C15 0.0(7) . . . . ?
C13 C14 C15 C16 -0.5(7) . . . . ?
C14 C15 C16 C12 0.5(6) . . . . ?
N12 C12 C16 C15 0.0(6) . . . . ?
C5 C12 C16 C15 -179.3(4) . . . . ?
C41 P1 C21 C22 -102.3(4) . . . . ?
C31 P1 C21 C22 3.8(4) . . . . ?
Cu1 P1 C21 C22 131.5(4) . . . . ?
C41 P1 C21 C26 82.3(4) . . . . ?
C31 P1 C21 C26 -171.6(3) . . . . ?
Cu1 P1 C21 C26 -44.0(4) . . . . ?
C26 C21 C22 C23 -0.6(7) . . . . ?
P1 C21 C22 C23 -176.0(4) . . . . ?
C21 C22 C23 C24 -0.1(9) . . . . ?
C22 C23 C24 C25 0.8(9) . . . . ?
C23 C24 C25 C26 -0.9(9) . . . . ?
C22 C21 C26 C25 0.5(7) . . . . ?
P1 C21 C26 C25 176.2(4) . . . . ?
C24 C25 C26 C21 0.2(8) . . . . ?
C41 P1 C31 C32 -145.3(4) . . . . ?
C21 P1 C31 C32 106.6(4) . . . . ?
Cu1 P1 C31 C32 -15.6(5) . . . . ?
C41 P1 C31 C36 35.1(5) . . . . ?
C21 P1 C31 C36 -73.0(5) . . . . ?
Cu1 P1 C31 C36 164.8(4) . . . . ?
C36 C31 C32 C33 -0.6(8) . . . . ?
P1 C31 C32 C33 179.8(5) . . . . ?
C31 C32 C33 C34 1.5(10) . . . . ?
C32 C33 C34 C35 -1.6(11) . . . . ?
C33 C34 C35 C36 0.9(11) . . . . ?
C34 C35 C36 C31 0.0(10) . . . . ?
C32 C31 C36 C35 -0.1(9) . . . . ?
P1 C31 C36 C35 179.5(5) . . . . ?
C31 P1 C41 C46 -99.7(4) . . . . ?
C21 P1 C41 C46 8.6(5) . . . . ?
Cu1 P1 C41 C46 130.0(4) . . . . ?
C31 P1 C41 C42 78.4(4) . . . . ?
C21 P1 C41 C42 -173.3(4) . . . . ?
Cu1 P1 C41 C42 -51.9(4) . . . . ?
C46 C41 C42 C43 3.5(8) . . . . ?
P1 C41 C42 C43 -174.7(5) . . . . ?
C41 C42 C43 C44 -1.2(9) . . . . ?
C42 C43 C44 C45 -1.7(9) . . . . ?
C43 C44 C45 C46 2.2(9) . . . . ?
C42 C41 C46 C45 -3.0(8) . . . . ?
P1 C41 C46 C45 175.1(4) . . . . ?
C44 C45 C46 C41 0.1(8) . . . . ?

_refine_diff_density_max         1.804
_refine_diff_density_min         -1.043
_refine_diff_density_rms         0.118

_shelx_res_file                  
;
TITL Cu_I C2/c
    shelx.res
    created by SHELXL-2018/3 at 17:02:29 on 12-Aug-2021
CELL  0.71073  25.4203   9.3752  24.4816   90.000   91.257   90.000
ZERR     8.00   0.0015   0.0005   0.0016    0.000    0.002    0.000
LATT   7
SYMM  - X,   Y, 1/2 - Z
SFAC  C    H    CU   I    N    P
UNIT  256 208 8 8 24 8
MERG   2
FMAP   2
PLAN   20
SIZE     0.080   0.200   0.300
ACTA
BOND   $H
CONF
L.S.  10
TEMP   -73.15
WGHT    0.031600   35.253498
FVAR       0.15095
CU1   3    0.339320    0.549672    0.411644    11.00000    0.01838    0.02703 =
         0.03242   -0.00871    0.00512    0.00113
I1    4    0.362780    0.388849    0.495863    11.00000    0.03092    0.02363 =
         0.04671    0.00252    0.00016    0.00170
N1    5    0.327165    0.759593    0.433060    11.00000    0.01810    0.02080 =
         0.02542   -0.00123    0.00341   -0.00158
N2    5    0.355172    0.880970    0.439962    11.00000    0.02431    0.01828 =
         0.03019    0.00094    0.00169   -0.00202
C3    1    0.323249    0.995864    0.445134    11.00000    0.04213    0.01717 =
         0.03609    0.00186    0.00044    0.00338
AFIX  43
H3    2    0.334065    1.091891    0.450621    11.00000   -1.20000
AFIX   0
C4    1    0.272595    0.947537    0.440969    11.00000    0.03143    0.02712 =
         0.03428    0.00246    0.00016    0.01106
AFIX  43
H4    2    0.241303    1.002568    0.442794    11.00000   -1.20000
AFIX   0
C5    1    0.276478    0.800798    0.433493    11.00000    0.02265    0.02536 =
         0.01893    0.00072    0.00213    0.00293
C6    1    0.411595    0.874825    0.443425    11.00000    0.02159    0.02564 =
         0.03228   -0.00308    0.00089   -0.00831
C7    1    0.435560    0.765341    0.472179    11.00000    0.02229    0.02849 =
         0.04729    0.00311    0.00301   -0.00385
AFIX  43
H7    2    0.415047    0.694699    0.489616    11.00000   -1.20000
AFIX   0
C8    1    0.490389    0.759892    0.475273    11.00000    0.02615    0.03123 =
         0.06217   -0.00205   -0.00028    0.00091
AFIX  43
H8    2    0.507401    0.684455    0.494618    11.00000   -1.20000
AFIX   0
C9    1    0.519917    0.863157    0.450462    11.00000    0.02206    0.05124 =
         0.06372   -0.00094    0.00172   -0.01234
AFIX  43
H9    2    0.557244    0.858659    0.452495    11.00000   -1.20000
AFIX   0
C10   1    0.495526    0.972503    0.422818    11.00000    0.03739    0.06026 =
         0.06466    0.01324    0.00445   -0.02808
AFIX  43
H10   2    0.516190    1.044116    0.406154    11.00000   -1.20000
AFIX   0
C11   1    0.440741    0.980285    0.418764    11.00000    0.03790    0.03773 =
         0.05166    0.01238   -0.00427   -0.01484
AFIX  43
H11   2    0.423903    1.056191    0.399531    11.00000   -1.20000
AFIX   0
C12   1    0.236861    0.688853    0.425956    11.00000    0.01954    0.03094 =
         0.01622    0.00160    0.00160    0.00339
N12   5    0.256208    0.559884    0.412984    11.00000    0.01866    0.02748 =
         0.03042   -0.00232    0.00390   -0.00062
C13   1    0.222168    0.451069    0.406401    11.00000    0.02581    0.03048 =
         0.04684   -0.00613    0.00428   -0.00480
AFIX  43
H13   2    0.235663    0.359639    0.397563    11.00000   -1.20000
AFIX   0
C14   1    0.168261    0.466229    0.411925    11.00000    0.02501    0.04382 =
         0.04696   -0.00123    0.00031   -0.01256
AFIX  43
H14   2    0.145303    0.387098    0.406983    11.00000   -1.20000
AFIX   0
C15   1    0.148918    0.598766    0.424740    11.00000    0.01439    0.05628 =
         0.03645    0.00845   -0.00103   -0.00339
AFIX  43
H15   2    0.112131    0.612245    0.428462    11.00000   -1.20000
AFIX   0
C16   1    0.183151    0.712985    0.432249    11.00000    0.02126    0.03647 =
         0.02738    0.00609    0.00399    0.00556
AFIX  43
H16   2    0.170356    0.804941    0.441410    11.00000   -1.20000
AFIX   0
P1    6    0.379513    0.495959    0.335827    11.00000    0.02083    0.02457 =
         0.02749   -0.00517    0.00406    0.00276
C21   1    0.339507    0.369061    0.295886    11.00000    0.02146    0.02441 =
         0.03110   -0.00790    0.00270    0.00458
C22   1    0.327660    0.384127    0.240947    11.00000    0.04305    0.05622 =
         0.03387   -0.00938    0.00156   -0.00143
AFIX  43
H22   2    0.342249    0.460683    0.220860    11.00000   -1.20000
AFIX   0
C23   1    0.294051    0.286070    0.214977    11.00000    0.05903    0.08143 =
         0.03783   -0.02128   -0.01143   -0.00371
AFIX  43
H23   2    0.285911    0.296708    0.177138    11.00000   -1.20000
AFIX   0
C24   1    0.272728    0.175155    0.243183    11.00000    0.04260    0.05511 =
         0.07431   -0.03362   -0.00006   -0.01171
AFIX  43
H24   2    0.250326    0.108666    0.224877    11.00000   -1.20000
AFIX   0
C25   1    0.283785    0.160014    0.298162    11.00000    0.05357    0.04185 =
         0.06732   -0.01535    0.00862   -0.01631
AFIX  43
H25   2    0.268734    0.083994    0.318171    11.00000   -1.20000
AFIX   0
C26   1    0.317290    0.257415    0.324125    11.00000    0.04174    0.03168 =
         0.04263   -0.00899    0.00106   -0.00511
AFIX  43
H26   2    0.325036    0.246881    0.362049    11.00000   -1.20000
AFIX   0
C31   1    0.393427    0.640174    0.287818    11.00000    0.02734    0.02800 =
         0.03566    0.00002    0.00248   -0.00142
C32   1    0.367876    0.769025    0.293218    11.00000    0.04979    0.03952 =
         0.05119    0.00176    0.00612    0.01372
AFIX  43
H32   2    0.343347    0.781778    0.321531    11.00000   -1.20000
AFIX   0
C33   1    0.377781    0.879116    0.257764    11.00000    0.09320    0.03756 =
         0.06725    0.00820    0.00571    0.01977
AFIX  43
H33   2    0.360526    0.968010    0.262483    11.00000   -1.20000
AFIX   0
C34   1    0.412095    0.863072    0.215710    11.00000    0.06675    0.04094 =
         0.06450    0.02295   -0.00087   -0.00863
AFIX  43
H34   2    0.417842    0.939349    0.191002    11.00000   -1.20000
AFIX   0
C35   1    0.437976    0.736165    0.209672    11.00000    0.05678    0.05922 =
         0.07075    0.02405    0.02835    0.00583
AFIX  43
H35   2    0.462179    0.724448    0.180993    11.00000   -1.20000
AFIX   0
C36   1    0.428784    0.624542    0.245558    11.00000    0.04928    0.04162 =
         0.06395    0.01295    0.02362    0.01073
AFIX  43
H36   2    0.446804    0.536628    0.241227    11.00000   -1.20000
AFIX   0
C41   1    0.443622    0.410116    0.342502    11.00000    0.02494    0.03625 =
         0.03125    0.00494    0.00416    0.00532
C42   1    0.480652    0.475998    0.376179    11.00000    0.03100    0.06226 =
         0.05792   -0.00268   -0.00453   -0.00073
AFIX  43
H42   2    0.471076    0.557340    0.396857    11.00000   -1.20000
AFIX   0
C43   1    0.531919    0.423752    0.379950    11.00000    0.03165    0.09310 =
         0.07038    0.02323   -0.00963   -0.00319
AFIX  43
H43   2    0.557276    0.470753    0.402640    11.00000   -1.20000
AFIX   0
C44   1    0.545923    0.305239    0.351179    11.00000    0.03311    0.10555 =
         0.06226    0.04597    0.01083    0.02926
AFIX  43
H44   2    0.581117    0.271192    0.353018    11.00000   -1.20000
AFIX   0
C45   1    0.508964    0.236348    0.319836    11.00000    0.05711    0.07446 =
         0.05319    0.01683    0.01757    0.04449
AFIX  43
H45   2    0.518374    0.152035    0.300870    11.00000   -1.20000
AFIX   0
C46   1    0.457594    0.287522    0.315142    11.00000    0.04695    0.04929 =
         0.03816    0.00263    0.00520    0.02410
AFIX  43
H46   2    0.432261    0.238193    0.293179    11.00000   -1.20000
AFIX   0
HKLF    4




REM  Cu_I C2/c
REM wR2 = 0.1198, GooF = S = 1.128, Restrained GooF = 1.128 for all data
REM R1 = 0.0550 for 6055 Fo > 4sig(Fo) and 0.0778 for all 7848 data
REM 343 parameters refined using 0 restraints

END

WGHT      0.0316     35.2598

REM Highest difference peak  1.804,  deepest hole -1.043,  1-sigma level  0.118
Q1    1   0.3684  0.3836  0.5293  11.00000  0.05    1.80
Q2    1   0.3563  0.3888  0.4594  11.00000  0.05    1.46
Q3    1   0.1134  0.2719  0.4211  11.00000  0.05    1.17
Q4    1   0.3454  0.5523  0.4482  11.00000  0.05    1.06
Q5    1   0.3486  0.4794  0.4788  11.00000  0.05    0.92
Q6    1   0.3578  0.4643  0.4713  11.00000  0.05    0.92
Q7    1   0.3794  0.5679  0.4180  11.00000  0.05    0.90
Q8    1   0.3336  0.5501  0.3739  11.00000  0.05    0.84
Q9    1   0.3671  0.4743  0.5104  11.00000  0.05    0.83
Q10   1   0.3723  0.3043  0.4909  11.00000  0.05    0.82
Q11   1   0.5652  0.8230  0.4057  11.00000  0.05    0.72
Q12   1   0.3238  0.6421  0.4204  11.00000  0.05    0.67
Q13   1   0.3634  0.6403  0.4212  11.00000  0.05    0.62
Q14   1   0.3492  0.3808  0.4956  11.00000  0.05    0.61
Q15   1   0.3756  0.3758  0.4909  11.00000  0.05    0.61
Q16   1   0.3550  0.4445  0.4226  11.00000  0.05    0.59
Q17   1   0.1491  0.9226  0.4883  11.00000  0.05    0.57
Q18   1   0.3579  0.6420  0.3958  11.00000  0.05    0.57
Q19   1   0.4014  0.3283  0.5162  11.00000  0.05    0.57
Q20   1   0.3290  0.7338  0.4012  11.00000  0.05    0.53
;
_shelx_res_checksum              83919

_exptl_crystal_recrystallization_method 
'Re-crystallisation from solvent: dichloromethane'
