# Electronic Supplementary Material (ESI) for Physical Chemistry Chemical Physics.
# This journal is Â© the Owner Societies 2022

####################################################################### 
# 
# This file contains crystal structure data downloaded from the 
# Cambridge Structural Database (CSD) hosted by the Cambridge 
# Crystallographic Data Centre (CCDC).
# 
# Full information about CCDC data access policies and citation 
# guidelines are available at http://www.ccdc.cam.ac.uk/access/V1 
# 
# Audit and citation data items may have been added by the CCDC. 
# Please retain this information to preserve the provenance of 
# this file and to allow appropriate attribution of the data. 
# 
#######################################################################

data_PK14
_database_code_depnum_ccdc_archive 'CCDC 2209353'
loop_
_audit_author_name
_audit_author_address
'Sergey Belyakov'
;Latvian Institute of Organic Synthesis
Latvia
;
_audit_update_record             
;
2022-09-25 deposited with the CCDC.	2022-12-27 downloaded from the CCDC.
;
_audit_creation_date             2022-02-24
_audit_creation_method           
;
Olex2 1.2-ac4
(compiled 2018.05.17 svn.r3504 for Rigaku Oxford Diffraction, GUI svn.r5492)
;
_chemical_formula_moiety         '3(C29 H31 Cu N2 O2 S2), C12 H9 N O2 S'
_chemical_formula_sum            'C99 H102 Cu3 N7 O8 S7'
_chemical_formula_weight         1933.06
_chemical_oxdiff_formula         'C198 H204 Cu6 N14 O16 S14 '
_chemical_oxdiff_usercomment     'from Kaspars'
loop_
_atom_type_symbol
_atom_type_scat_dispersion_real
_atom_type_scat_dispersion_imag
_atom_type_scat_Cromer_Mann_a1
_atom_type_scat_Cromer_Mann_a2
_atom_type_scat_Cromer_Mann_a3
_atom_type_scat_Cromer_Mann_a4
_atom_type_scat_Cromer_Mann_b1
_atom_type_scat_Cromer_Mann_b2
_atom_type_scat_Cromer_Mann_b3
_atom_type_scat_Cromer_Mann_b4
_atom_type_scat_Cromer_Mann_c
_atom_type_scat_source
_atom_type_scat_dispersion_source
C 0.01920 0.00962 2.31000 1.02000 1.58860 0.86500 20.84390 10.20750 0.56870
51.65120 0.215599998832
'International Tables Volume C Table 6.1.1.4 (pp. 500-502)'
'Henke, Gullikson and Davis, At. Data and Nucl. Data Tables, 1993, 54, 2'
H 0.00000 0.00000 0.49300 0.32291 0.14019 0.04081 10.51090 26.12570 3.14236
57.79970 0.0030380000826
'International Tables Volume C Table 6.1.1.4 (pp. 500-502)'
'Henke, Gullikson and Davis, At. Data and Nucl. Data Tables, 1993, 54, 2'
O 0.05239 0.03377 3.04850 2.28680 1.54630 0.86700 13.27710 5.70110 0.32390
32.90890 0.250800013542
'International Tables Volume C Table 6.1.1.4 (pp. 500-502)'
'Henke, Gullikson and Davis, At. Data and Nucl. Data Tables, 1993, 54, 2'
N 0.03256 0.01839 12.21260 3.13220 2.01250 1.16630 0.00570 9.89330 28.99750
0.58260 -11.5290002823
'International Tables Volume C Table 6.1.1.4 (pp. 500-502)'
'Henke, Gullikson and Davis, At. Data and Nucl. Data Tables, 1993, 54, 2'
S 0.33537 0.55136 6.90530 5.20340 1.43790 1.58630 1.46790 22.21510 0.25360
56.17200 0.866900026798
'International Tables Volume C Table 6.1.1.4 (pp. 500-502)'
'Henke, Gullikson and Davis, At. Data and Nucl. Data Tables, 1993, 54, 2'
Cu -1.96878 0.60861 13.33800 7.16760 5.61580 1.67350 3.58280 0.24700 11.39660
64.81260 1.19099998474
'International Tables Volume C Table 6.1.1.4 (pp. 500-502)'
'Henke, Gullikson and Davis, At. Data and Nucl. Data Tables, 1993, 54, 2'

_space_group_crystal_system      triclinic
_space_group_IT_number           2
_space_group_name_H-M_alt        'P -1'
_space_group_name_Hall           '-P 1'
loop_
_space_group_symop_id
_space_group_symop_operation_xyz
1 x,y,z
2 -x,-y,-z

_symmetry_Int_Tables_number      2
_cell_length_a                   12.21430(10)
_cell_length_b                   14.32990(10)
_cell_length_c                   28.98270(10)
_cell_angle_alpha                94.4120(10)
_cell_angle_beta                 100.8830(10)
_cell_angle_gamma                110.8080(10)
_cell_volume                     4599.03(7)
_cell_formula_units_Z            2
_cell_measurement_reflns_used    66945
_cell_measurement_temperature    150.0(1)
_cell_measurement_theta_max      80.1130
_cell_measurement_theta_min      3.2140
_exptl_absorpt_coefficient_mu    2.775
_exptl_absorpt_correction_T_max  0.87431
_exptl_absorpt_correction_T_min  0.76053
_exptl_absorpt_correction_type   multi-scan
_exptl_absorpt_process_details   
;
CrysAlisPro 1.171.41.123a (Rigaku Oxford Diffraction, 2022)
Empirical absorption correction using spherical harmonics,
implemented in SCALE3 ABSPACK scaling algorithm.
;
_exptl_crystal_density_diffrn    1.3958
_exptl_crystal_F_000             2016
_exptl_crystal_colour            Colourless
_exptl_crystal_description       'Block '
_exptl_crystal_size_max          0.17
_exptl_crystal_size_mid          0.06
_exptl_crystal_size_min          0.04
_diffrn_reflns_av_R_equivalents  0.0319
_diffrn_reflns_av_unetI/netI     0.0256
_diffrn_reflns_limit_h_max       15
_diffrn_reflns_limit_h_min       -15
_diffrn_reflns_limit_k_max       18
_diffrn_reflns_limit_k_min       -18
_diffrn_reflns_limit_l_max       36
_diffrn_reflns_limit_l_min       -37
_diffrn_reflns_number            92885
_diffrn_reflns_theta_full        80.5287
_diffrn_reflns_theta_max         80.53
_diffrn_reflns_theta_min         3.14
_diffrn_ambient_environment      N~2~
_diffrn_ambient_temperature      150.0(1)
_diffrn_detector                 'Hybrid Pixel Array Detector'
_diffrn_detector_area_resol_mean 10.0000
_diffrn_detector_type            HyPix
_diffrn_measured_fraction_theta_full 0.9807
_diffrn_measured_fraction_theta_max 0.9807
_diffrn_measurement_details      
;
List of Runs (angles in degrees, time in seconds):

  # Type    Start    End  Width  t~exp~   \w     \q     \k     \f   Frames
#--------------------------------------------------------------------------
  1  \w    -79.00  21.00   0.50    0.26    --  -49.73  98.00  74.00  200
  2  \w     12.00  76.00   0.50    0.26    --   49.73 -98.00 -32.00  128
  3  \w   -148.00-123.00   0.50    1.05    --  -90.00 -98.00 -32.00   50
  4  \w    -73.00 -48.00   0.50    1.05    --  -90.00  98.00  74.00   50
  5  \w     60.00 105.00   0.50    1.05    --  111.50 -98.00 -32.00   90
  6  \w    106.00 145.00   0.50    1.05    --  111.50  98.00  74.00   78
  7  \w   -119.00 -88.00   0.50    0.26    --  -49.73 -77.00 120.00   62
  8  \w   -122.00 -90.00   0.50    0.26    --  -49.73 -77.00  90.00   64
  9  \w   -118.00 -93.00   0.50    0.26    --  -49.73 -77.00  60.00   50
 10  \w    -43.00  24.00   0.50    0.26    --  -49.73  19.00   0.00  134
 11  \w    -24.00  13.00   0.50    0.26    --  -49.73  57.00  30.00   74
 12  \w   -121.00 -90.00   0.50    0.26    --  -49.73 -77.00  30.00   62
 13  \w    -61.00 -33.00   0.50    0.26    --  -49.73  57.00  30.00   56
 14  \w     -4.00  43.00   0.50    0.26    --   49.73 -38.00  30.00   94
 15  \w    -44.00 -19.00   0.50    1.05    --  -90.00  30.00-120.00   50
 16  \w   -153.00-111.00   0.50    1.05    --  -90.00 -77.00  60.00   84
 17  \w    -46.00 -20.00   0.50    1.05    --  -90.00  15.00 -90.00   52
 18  \w    -44.00 -19.00   0.50    1.05    --  -90.00  30.00-180.00   50
 19  \w     98.00 136.00   0.50    1.05    --  111.50 -85.00 152.40   76
 20  \w     47.00  73.00   0.50    1.05    --  111.50 -85.00 152.40   52
 21  \w     41.00  66.00   0.50    1.05    --  111.50 -77.00-180.00   50
 22  \w     99.00 125.00   0.50    1.05    --  111.50-144.00 105.36   52
 23  \w     63.00  89.00   0.50    1.05    --  111.50-144.00 105.36   52
 24  \w     41.00  66.00   0.50    1.05    --  111.50 -61.00   0.00   50
 25  \w     81.00 106.00   0.50    1.05    --  111.50 -97.00 149.25   50
 26  \w    109.00 178.00   0.50    1.05    --  111.50  30.00  30.00  138
 27  \w     43.00  92.00   0.50    1.05    --  111.50 -94.00  90.00   98
 28  \w    104.00 178.00   0.50    1.05    --  111.50  30.00-120.00  148
 29  \w     41.00  67.00   0.50    1.05    --  111.50 -61.00-180.00   52
 30  \w     47.00 102.00   0.50    1.05    --  111.50-100.00 -55.82  110
 31  \w     41.00  67.00   0.50    1.05    --  111.50 -94.00  60.00   52
 32  \w     41.00 107.00   0.50    1.05    --  111.50-108.00 120.29  132
 33  \w    118.00 177.00   0.50    1.05    --  111.50  45.00  60.00  118
 34  \w     44.00  74.00   0.50    1.05    --  111.50 -77.00-150.00   60
 35  \w     41.00  90.00   0.50    1.05    --  111.50 -77.00  30.00   98
 36  \w    102.00 175.00   0.50    1.05    --  111.50  45.00 120.00  146
 37  \w     72.00 106.00   0.50    1.05    --  111.50-100.00   2.51   68
 38  \w     43.00  68.00   0.50    1.05    --  111.50-100.00   2.51   50
 39  \w     42.00 107.00   0.50    1.05    --  111.50-103.00 -66.66  130
 40  \w     41.00  66.00   0.50    1.05    --  111.50 -61.00-120.00   50
 41  \w     41.00  84.00   0.50    1.05    --  111.50 -94.00-150.00   86
 42  \w    105.00 176.00   0.50    1.05    --  111.50  15.00 -30.00  142
 43  \w     43.00  68.00   0.50    1.05    --  111.50 -61.00  30.00   50
 44  \w     41.00  66.00   0.50    1.05    --  111.50 -61.00 -60.00   50
 45  \w    105.00 163.00   0.50    1.05    --  111.50  30.00 -90.00  116
 46  \w     71.00 106.00   0.50    1.05    --  111.50-102.00  40.76   70
 47  \w     61.00 116.00   0.50    1.05    --  111.50-133.00 133.43  110
 48  \w     46.00  71.00   0.50    1.05    --  111.50 -77.00-120.00   50
 49  \w     59.00 105.00   0.50    1.05    --  111.50 -98.00 173.09   92
 50  \w    119.00 171.00   0.50    1.05    --  111.50  15.00-150.00  104
 51  \w     61.00 101.00   0.50    1.05    --  111.50 -94.00 120.00   80
 52  \w     45.00  72.00   0.50    1.05    --  111.50-115.00  -0.43   54
 53  \w     75.00 109.00   0.50    1.05    --  111.50-115.00  -0.43   68
 54  \w    109.00 135.00   0.50    1.05    --  111.50  30.00  90.00   52
 55  \w    144.00 170.00   0.50    1.05    --  111.50  30.00  90.00   52
 56  \w     44.00  78.00   0.50    1.05    --  111.50 -94.00   0.00   68
 57  \w    130.00 156.00   0.50    1.05    --  111.50 125.00   0.00   52
 58  \w     74.00  99.00   0.50    1.05    --  111.50 -94.00  60.00   50
 59  \w     41.00  66.00   0.50    1.05    --  111.50 -77.00 -60.00   50
 60  \w     48.00  73.00   0.50    1.05    --  111.50 -77.00  60.00   50
 61  \w    104.00 139.00   0.50    1.05    --  111.50  45.00   0.00   70
 62  \w     43.00  70.00   0.50    1.05    --  111.50 -94.00-180.00   54
 63  \w     52.00  77.00   0.50    1.05    --  111.50 -94.00 -90.00   50
 64  \w     82.00 107.00   0.50    1.05    --  111.50-102.00 129.26   50
 65  \w     42.00  93.00   0.50    1.05    --  111.50-125.00  60.00  102
 66  \w    123.00 149.00   0.50    1.05    --  111.50  15.00-120.00   52
 67  \w     73.00  98.00   0.50    1.05    --  111.50 -94.00-120.00   50
 68  \w     43.00  68.00   0.50    1.05    --  111.50-125.00-180.00   50
 69  \w     63.00 111.00   0.50    1.05    --  111.50-125.00 -90.00   96
 70  \w     86.00 111.00   0.50    1.05    --  111.50-125.00-120.00   50
 71  \w    106.00 168.00   0.50    1.05    --  111.50  15.00-180.00  124
 72  \w     43.00  71.00   0.50    1.05    --  111.50 -97.00 149.25   56
;
_diffrn_measurement_device       'four-circle diffractometer'
_diffrn_measurement_device_type  'Rigaku, XtaLAB Synergy, Dualflex, HyPix'
_diffrn_measurement_method       '\w scans'
_diffrn_orient_matrix_type       
'CrysAlisPro convention (1999,Acta A55,543-557)'
_diffrn_orient_matrix_UB_11      0.0499301000
_diffrn_orient_matrix_UB_12      0.0703921000
_diffrn_orient_matrix_UB_13      0.0483137000
_diffrn_orient_matrix_UB_21      0.0704418000
_diffrn_orient_matrix_UB_22      -0.0651180000
_diffrn_orient_matrix_UB_23      0.0185625000
_diffrn_orient_matrix_UB_31      0.1085592000
_diffrn_orient_matrix_UB_32      0.0660691000
_diffrn_orient_matrix_UB_33      -0.0180270000
_diffrn_oxdiff_digest_frames     
;
010f8d4af4756da0a76a5595819ed0993a000406bc7
;
_diffrn_oxdiff_digest_hkl        
;
01a21f8abd0335e5413373a08a1018a86117b6
;
_diffrn_radiation_monochromator  mirror
_diffrn_radiation_probe          x-ray
_diffrn_radiation_type           'Cu K\a'
_diffrn_radiation_wavelength     1.54184
_diffrn_source                   'micro-focus sealed X-ray tube'
_diffrn_source_type              'PhotonJet (Cu) X-ray Source'
_reflns_Friedel_coverage         0.0
_reflns_limit_h_max              15
_reflns_limit_h_min              -15
_reflns_limit_k_max              18
_reflns_limit_k_min              -18
_reflns_limit_l_max              37
_reflns_limit_l_min              0
_reflns_number_gt                18782
_reflns_number_total             19798
_reflns_odcompleteness_completeness 99.24
_reflns_odcompleteness_iscentric 1
_reflns_odcompleteness_theta     77.49
_reflns_threshold_expression     I>=2u(I)
_computing_cell_refinement       'CrysAlisPro 1.171.41.123a (Rigaku OD, 2022)'
_computing_data_collection       'CrysAlisPro 1.171.41.123a (Rigaku OD, 2022)'
_computing_data_reduction        'CrysAlisPro 1.171.41.123a (Rigaku OD, 2022)'
_computing_molecular_graphics    'Olex2 (Dolomanov et al., 2009)'
_computing_publication_material  'Olex2 (Dolomanov et al., 2009)'
_computing_structure_refinement  'olex2.refine (Bourhis et al., 2015)'
_computing_structure_solution    'ShelXS (Sheldrick, 2008)'
_refine_diff_density_max         0.3618
_refine_diff_density_min         -0.4962
_refine_diff_density_rms         0.0567
_refine_ls_d_res_high            0.7816
_refine_ls_d_res_low             14.0545
_refine_ls_goodness_of_fit_ref   1.0354
_refine_ls_hydrogen_treatment    mixed
_refine_ls_matrix_type           full
_refine_ls_number_constraints    166
_refine_ls_number_parameters     1139
_refine_ls_number_reflns         19798
_refine_ls_number_restraints     0
_refine_ls_R_factor_all          0.0339
_refine_ls_R_factor_gt           0.0326
_refine_ls_restrained_S_all      1.0354
_refine_ls_shift/su_max          0.0014
_refine_ls_shift/su_mean         0.0003
_refine_ls_structure_factor_coef Fsqd
_refine_ls_weighting_details     
'w=1/[\s^2^(Fo^2^)+(0.0493P)^2^+2.1780P] where P=(Fo^2^+2Fc^2^)/3'
_refine_ls_weighting_scheme      calc
_refine_ls_wR_factor_gt          0.0905
_refine_ls_wR_factor_ref         0.0916
_olex2_refinement_description    
;
1. Fixed Uiso
 At 1.2 times of:
  All C(H) groups
 At 1.5 times of:
  All C(H,H,H) groups
2.a Ternary CH refined with riding coordinates:
 C25(H25), C55(H55), C82(H82), C52(H52), C22(H22), C85(H85)
2.b Aromatic/amide H refined with riding coordinates:
 C20(H20), C39(H39), C50(H50), C18(H18), C19(H19), C78(H78), C99(H99),
 C66(H66), C1(H1), C38(H38), C9(H9), C69(H69), C98(H98), C94(H94), C49(H49),
 C64(H64), C67(H67), C68(H68), C48(H48), C96(H96), C31(H31), C80(H80), C61(H61),
  C2(H2), C3(H3), C97(H97), C6(H6), C91(H91), C37(H37), C62(H62), C79(H79),
 C63(H63), C34(H34), C4(H4), C5(H5), C8(H8), C32(H32), C92(H92), C33(H33),
 C93(H93), C7(H7)
2.c Idealised Me refined as rotating group:
 C28(H28a,H28b,H28c), C58(H58a,H58b,H58c), C88(H88a,H88b,H88c), C59(H59a,H59b,
 H59c), C26(H26a,H26b,H26c), C89(H89a,H89b,H89c), C29(H29a,H29b,H29c), C23(H23a,
 H23b,H23c), C56(H56a,H56b,H56c), C54(H54a,H54b,H54c), C84(H84a,H84b,H84c),
 C83(H83a,H83b,H83c), C86(H86a,H86b,H86c), C57(H57a,H57b,H57c), C87(H87a,H87b,
 H87c), C53(H53a,H53b,H53c), C27(H27a,H27b,H27c), C24(H24a,H24b,H24c)
;
_atom_sites_solution_primary     heavy
loop_
_atom_site_label
_atom_site_type_symbol
_atom_site_fract_x
_atom_site_fract_y
_atom_site_fract_z
_atom_site_U_iso_or_equiv
_atom_site_adp_type
_atom_site_occupancy
_atom_site_refinement_flags_posn
Cu1 Cu 1.172106(19) 1.021681(15) 0.475868(8) 0.02463(6) Uani 1.000000 .
Cu3 Cu 0.444229(18) 0.354048(16) 0.116282(8) 0.02540(6) Uani 1.000000 .
Cu2 Cu 0.554859(19) 0.323923(16) 0.265436(9) 0.02782(6) Uani 1.000000 .
S11 S 1.11937(3) 1.22305(3) 0.463199(13) 0.02727(8) Uani 1.000000 .
S35 S 0.74545(3) 0.07544(3) 0.249123(13) 0.02936(8) Uani 1.000000 .
S41 S 0.55518(3) 0.54648(3) 0.262742(14) 0.02895(8) Uani 1.000000 .
S71 S 0.46097(3) 0.13731(3) 0.124426(14) 0.02855(8) Uani 1.000000 .
S65 S 0.24543(3) 0.58738(3) 0.138104(15) 0.03212(8) Uani 1.000000 .
S5 S 1.07244(3) 0.66588(3) 0.421139(15) 0.03282(9) Uani 1.000000 .
S95 S -0.05582(3) 0.93462(3) 0.090830(14) 0.03135(8) Uani 1.000000 .
O3 O 0.76919(12) 0.09334(11) 0.20301(4) 0.0411(3) Uani 1.000000 .
O6 O -0.15151(11) 0.85151(10) 0.05865(5) 0.0420(3) Uani 1.000000 .
N43 N 0.38302(10) 0.41093(8) 0.27979(4) 0.0216(2) Uani 1.000000 .
N73 N 0.62786(10) 0.27823(9) 0.10745(4) 0.0221(2) Uani 1.000000 .
O5 O -0.06910(13) 1.03024(10) 0.09620(5) 0.0433(3) Uani 1.000000 .
N10 N 1.17417(11) 0.89399(9) 0.45761(4) 0.0238(2) Uani 1.000000 .
N13 N 1.25027(10) 1.21060(9) 0.53650(4) 0.0223(2) Uani 1.000000 .
O4 O 0.78290(13) -0.00094(11) 0.26907(5) 0.0457(3) Uani 1.000000 .
O1 O 0.94528(11) 0.64697(11) 0.40831(5) 0.0465(3) Uani 1.000000 .
O2 O 1.10514(13) 0.57940(9) 0.41332(6) 0.0493(3) Uani 1.000000 .
N40 N 0.62360(11) 0.22518(9) 0.26862(5) 0.0260(2) Uani 1.000000 .
N70 N 0.37211(11) 0.45035(9) 0.11048(5) 0.0253(2) Uani 1.000000 .
O91 O 0.22523(12) 0.55382(12) 0.18255(5) 0.0515(4) Uani 1.000000 .
O92 O 0.20309(13) 0.66643(11) 0.12532(7) 0.0571(4) Uani 1.000000 .
N100 N 0.09127(13) 0.81126(10) 0.11734(5) 0.0320(3) Uani 1.000000 .
H100 H 0.125(2) 0.7714(18) 0.1217(8) 0.042(6) Uiso 1.000000 .
C9A C 1.16707(12) 0.82887(11) 0.49082(5) 0.0232(3) Uani 1.000000 .
C99A C 0.03335(13) 0.83038(11) 0.15133(6) 0.0271(3) Uani 1.000000 .
C65A C 0.39710(13) 0.62552(11) 0.13890(5) 0.0257(3) Uani 1.000000 .
C46 C 0.30699(12) 0.31295(10) 0.28842(5) 0.0227(3) Uani 1.000000 .
C10A C 1.18017(13) 0.86259(11) 0.41239(5) 0.0244(3) Uani 1.000000 .
C39A C 0.55167(13) 0.12469(11) 0.25361(5) 0.0230(3) Uani 1.000000 .
C51 C 0.21683(13) 0.24723(11) 0.25060(6) 0.0257(3) Uani 1.000000 .
C69A C 0.44201(13) 0.55049(11) 0.12852(5) 0.0230(3) Uani 1.000000 .
C21 C 1.27027(13) 1.13268(11) 0.60846(5) 0.0256(3) Uani 1.000000 .
C44 C 0.35402(13) 0.49684(11) 0.28468(5) 0.0249(3) Uani 1.000000 .
C16 C 1.31825(12) 1.17051(10) 0.57055(5) 0.0232(3) Uani 1.000000 .
C75 C 0.58022(14) 0.11073(11) 0.11113(5) 0.0285(3) Uani 1.000000 .
C36 C 0.74460(13) 0.25257(11) 0.28886(5) 0.0261(3) Uani 1.000000 .
C95A C -0.02986(13) 0.89535(11) 0.14596(6) 0.0277(3) Uani 1.000000 .
C17 C 1.42800(13) 1.16976(11) 0.56281(5) 0.0263(3) Uani 1.000000 .
C5A C 1.13178(13) 0.72389(11) 0.47977(6) 0.0277(3) Uani 1.000000 .
C20 C 1.33609(14) 1.09132(12) 0.63958(5) 0.0291(3) Uani 1.000000 .
H20 H 1.30602(14) 1.06436(12) 0.66562(5) 0.0349(4) Uiso 1.000000 R
C45 C 0.44139(14) 0.57932(11) 0.27680(5) 0.0268(3) Uani 1.000000 .
C81 C 0.65987(14) 0.39292(11) 0.04882(5) 0.0273(3) Uani 1.000000 .
C72 C 0.52054(13) 0.26106(11) 0.11818(5) 0.0243(3) Uani 1.000000 .
C77 C 0.78585(13) 0.44834(11) 0.13029(5) 0.0257(3) Uani 1.000000 .
C4A C 1.14858(14) 0.76135(12) 0.39222(5) 0.0289(3) Uani 1.000000 .
C76 C 0.69409(12) 0.37579(11) 0.09538(5) 0.0235(3) Uani 1.000000 .
C74 C 0.66398(13) 0.19595(11) 0.10342(5) 0.0259(3) Uani 1.000000 .
C39 C 0.42497(13) 0.09508(11) 0.24525(6) 0.0281(3) Uani 1.000000 .
H39 H 0.39225(13) 0.14537(11) 0.24934(6) 0.0337(3) Uiso 1.000000 R
C47 C 0.32938(13) 0.28877(11) 0.33422(6) 0.0274(3) Uani 1.000000 .
C64A C 0.18504(13) 0.48464(12) 0.09278(6) 0.0268(3) Uani 1.000000 .
C12 C 1.18041(12) 1.15163(11) 0.49542(5) 0.0236(3) Uani 1.000000 .
C50 C 0.14721(13) 0.15265(11) 0.25995(6) 0.0302(3) Uani 1.000000 .
H50 H 0.08542(13) 0.10571(11) 0.23503(6) 0.0363(4) Uiso 1.000000 R
C14 C 1.25882(13) 1.31093(10) 0.54299(6) 0.0262(3) Uani 1.000000 .
C34A C 0.80899(13) 0.18841(12) 0.28766(5) 0.0286(3) Uani 1.000000 .
C18 C 1.49003(14) 1.12809(13) 0.59520(6) 0.0311(3) Uani 1.000000 .
H18 H 1.56483(14) 1.12643(13) 0.59127(6) 0.0373(4) Uiso 1.000000 R
C19 C 1.44466(14) 1.08920(13) 0.63288(6) 0.0316(3) Uani 1.000000 .
H19 H 1.48822(14) 1.06083(13) 0.65433(6) 0.0380(4) Uiso 1.000000 R
C78 C 0.84535(14) 0.54187(12) 0.11729(6) 0.0314(3) Uani 1.000000 .
H78 H 0.90838(14) 0.59308(12) 0.14019(6) 0.0377(4) Uiso 1.000000 R
C100 C 0.12883(14) 0.87595(12) 0.08541(6) 0.0307(3) Uani 1.000000 .
C70A C 0.25250(13) 0.42392(11) 0.08824(5) 0.0248(3) Uani 1.000000 .
C99 C 0.03897(14) 0.78736(12) 0.19303(6) 0.0308(3) Uani 1.000000 .
H99 H 0.07955(14) 0.74197(12) 0.19733(6) 0.0370(4) Uiso 1.000000 R
C94A C 0.07779(15) 0.94680(12) 0.07392(6) 0.0319(3) Uani 1.000000 .
C66 C 0.47179(15) 0.72754(12) 0.15268(6) 0.0323(3) Uani 1.000000 .
H66 H 0.43775(15) 0.77648(12) 0.15795(6) 0.0388(4) Uiso 1.000000 R
C1 C 1.22748(14) 0.93641(13) 0.38403(6) 0.0320(3) Uani 1.000000 .
H1 H 1.24774(14) 1.00569(13) 0.39561(6) 0.0384(4) Uiso 1.000000 R
C42 C 0.48809(13) 0.42274(11) 0.26822(5) 0.0250(3) Uani 1.000000 .
C15 C 1.19244(13) 1.33086(11) 0.50495(6) 0.0286(3) Uani 1.000000 .
C25 C 1.14971(14) 1.13134(13) 0.61581(6) 0.0301(3) Uani 1.000000 .
H25 H 1.11406(14) 1.16011(13) 0.58930(6) 0.0361(4) Uiso 1.000000 R
C35A C 0.59379(14) 0.04622(11) 0.24698(5) 0.0260(3) Uani 1.000000 .
C38 C 0.34804(15) -0.00429(13) 0.23138(6) 0.0334(3) Uani 1.000000 .
H38 H 0.26353(15) -0.02114(13) 0.22528(6) 0.0401(4) Uiso 1.000000 R
C9 C 1.20383(14) 0.86969(13) 0.53968(6) 0.0307(3) Uani 1.000000 .
H9 H 1.22681(14) 0.94033(13) 0.54881(6) 0.0369(4) Uiso 1.000000 R
C69 C 0.56863(13) 0.58387(11) 0.13521(6) 0.0275(3) Uani 1.000000 .
H69 H 0.60366(13) 0.53592(11) 0.12934(6) 0.0330(3) Uiso 1.000000 R
C55 C 0.19541(14) 0.27312(12) 0.20067(6) 0.0316(3) Uani 1.000000 .
H55 H 0.24662(14) 0.34574(12) 0.20178(6) 0.0379(4) Uiso 1.000000 R
C98 C -0.01425(14) 0.81060(13) 0.22795(6) 0.0343(3) Uani 1.000000 .
H98 H -0.01110(14) 0.77990(13) 0.25582(6) 0.0412(4) Uiso 1.000000 R
C82 C 0.81594(14) 0.43085(12) 0.18145(6) 0.0303(3) Uani 1.000000 .
H82 H 0.78226(14) 0.35640(12) 0.18193(6) 0.0364(4) Uiso 1.000000 R
C94 C 0.12283(16) 1.01693(14) 0.04445(6) 0.0383(4) Uani 1.000000 .
H94 H 0.09003(16) 1.06697(14) 0.03840(6) 0.0459(4) Uiso 1.000000 R
C49 C 0.16666(15) 0.12624(12) 0.30477(7) 0.0342(3) Uani 1.000000 .
H49 H 0.11822(15) 0.06169(12) 0.31038(7) 0.0411(4) Uiso 1.000000 R
C64 C 0.06837(14) 0.45968(14) 0.06511(6) 0.0346(3) Uani 1.000000 .
H64 H 0.02662(14) 0.50363(14) 0.06834(6) 0.0415(4) Uiso 1.000000 R
C67 C 0.59397(15) 0.75719(12) 0.15861(6) 0.0345(3) Uani 1.000000 .
H67 H 0.64514(15) 0.82633(12) 0.16841(6) 0.0414(4) Uiso 1.000000 R
C68 C 0.64232(14) 0.68409(12) 0.15002(6) 0.0322(3) Uani 1.000000 .
H68 H 0.72700(14) 0.70389(12) 0.15447(6) 0.0386(4) Uiso 1.000000 R
C48 C 0.25654(15) 0.19356(12) 0.34158(6) 0.0337(3) Uani 1.000000 .
H48 H 0.26881(15) 0.17469(12) 0.37228(6) 0.0405(4) Uiso 1.000000 R
C96 C -0.08038(13) 0.92064(12) 0.18195(6) 0.0312(3) Uani 1.000000 .
H96 H -0.12003(13) 0.96679(12) 0.17817(6) 0.0375(4) Uiso 1.000000 R
C52 C 0.43081(15) 0.35988(12) 0.37460(6) 0.0328(3) Uani 1.000000 .
H52 H 0.46999(15) 0.42415(12) 0.36251(6) 0.0393(4) Uiso 1.000000 R
C31 C 0.81041(16) 0.35044(13) 0.31490(6) 0.0356(3) Uani 1.000000 .
H31 H 0.77178(16) 0.39726(13) 0.31629(6) 0.0427(4) Uiso 1.000000 R
C80 C 0.72271(16) 0.48759(13) 0.03777(6) 0.0336(3) Uani 1.000000 .
H80 H 0.70234(16) 0.50158(13) 0.00648(6) 0.0404(4) Uiso 1.000000 R
C61 C 0.19262(14) 0.33238(12) 0.05590(6) 0.0311(3) Uani 1.000000 .
H61 H 0.23312(14) 0.28755(12) 0.05240(6) 0.0374(4) Uiso 1.000000 R
C28 C 1.33136(16) 1.38155(12) 0.58783(7) 0.0367(4) Uani 1.000000 .
H28a H 1.2819(4) 1.3745(8) 0.61131(19) 0.0551(5) Uiso 1.000000 GR
H28b H 1.4017(7) 1.3654(7) 0.6004(3) 0.0551(5) Uiso 1.000000 GR
H28c H 1.3581(11) 1.45120(15) 0.58126(12) 0.0551(5) Uiso 1.000000 GR
C2 C 1.24479(16) 0.90999(17) 0.34003(6) 0.0407(4) Uani 1.000000 .
H2 H 1.27632(16) 0.96128(17) 0.32182(6) 0.0489(5) Uiso 1.000000 R
C3 C 0.51508(16) -0.05529(12) 0.23434(6) 0.0336(3) Uani 1.000000 .
H3 H 0.54658(16) -0.10671(12) 0.23141(6) 0.0403(4) Uiso 1.000000 R
C97 C -0.07264(15) 0.87853(13) 0.22296(6) 0.0349(3) Uani 1.000000 .
H97 H -0.10669(15) 0.89551(13) 0.24767(6) 0.0419(4) Uiso 1.000000 R
C22 C 1.48018(14) 1.21283(13) 0.52186(6) 0.0329(3) Uani 1.000000 .
H22 H 1.41591(14) 1.22559(13) 0.49943(6) 0.0394(4) Uiso 1.000000 R
C6 C 1.13715(17) 0.66322(14) 0.51517(7) 0.0400(4) Uani 1.000000 .
H6 H 1.11457(17) 0.59247(14) 0.50655(7) 0.0480(5) Uiso 1.000000 R
C85 C 0.55970(16) 0.31294(13) 0.01121(6) 0.0344(3) Uani 1.000000 .
H85 H 0.52003(16) 0.25448(13) 0.02698(6) 0.0413(4) Uiso 1.000000 R
C91 C 0.22242(16) 0.87274(14) 0.06444(6) 0.0372(4) Uani 1.000000 .
H91 H 0.25784(16) 0.82461(14) 0.07126(6) 0.0447(4) Uiso 1.000000 R
C37 C 0.39280(16) -0.08091(12) 0.22616(6) 0.0370(4) Uani 1.000000 .
H37 H 0.33938(16) -0.14958(12) 0.21710(6) 0.0443(4) Uiso 1.000000 R
C62 C 0.07699(15) 0.30680(14) 0.02938(6) 0.0366(4) Uani 1.000000 .
H62 H 0.03912(15) 0.24453(14) 0.00819(6) 0.0440(4) Uiso 1.000000 R
C58 C 0.23816(15) 0.49082(13) 0.29621(7) 0.0375(4) Uani 1.000000 .
H58a H 0.1742(3) 0.4266(5) 0.2801(4) 0.0563(6) Uiso 1.000000 GR
H58b H 0.2463(4) 0.4949(11) 0.33067(9) 0.0563(6) Uiso 1.000000 GR
H58c H 0.2177(7) 0.5470(7) 0.2855(5) 0.0563(6) Uiso 1.000000 GR
C88 C 0.78301(15) 0.20923(14) 0.09277(7) 0.0366(4) Uani 1.000000 .
H88a H 0.7975(6) 0.1465(4) 0.0951(5) 0.0549(5) Uiso 1.000000 GR
H88b H 0.7830(5) 0.2254(11) 0.0605(2) 0.0549(5) Uiso 1.000000 GR
H88c H 0.8467(2) 0.2645(8) 0.1157(3) 0.0549(5) Uiso 1.000000 GR
C59 C 0.44424(18) 0.68480(12) 0.27822(7) 0.0391(4) Uani 1.000000 .
H59a H 0.5217(6) 0.7296(2) 0.2733(5) 0.0586(6) Uiso 1.000000 GR
H59b H 0.3789(9) 0.6858(2) 0.2530(4) 0.0586(6) Uiso 1.000000 GR
H59c H 0.4340(14) 0.7080(4) 0.3092(2) 0.0586(6) Uiso 1.000000 GR
C79 C 0.81383(16) 0.56107(13) 0.07152(6) 0.0351(3) Uani 1.000000 .
H79 H 0.85517(16) 0.62513(13) 0.06337(6) 0.0421(4) Uiso 1.000000 R
C63 C 0.01450(15) 0.37089(15) 0.03314(7) 0.0389(4) Uani 1.000000 .
H63 H -0.06417(15) 0.35353(15) 0.01391(7) 0.0467(4) Uiso 1.000000 R
C34 C 0.92902(15) 0.21780(16) 0.31292(6) 0.0400(4) Uani 1.000000 .
H34 H 0.96870(15) 0.17161(16) 0.31236(6) 0.0480(5) Uiso 1.000000 R
C26 C 1.06415(15) 1.02237(14) 0.61388(7) 0.0399(4) Uani 1.000000 .
H26a H 1.0965(7) 0.9936(4) 0.6402(3) 0.0599(6) Uiso 1.000000 GR
H26b H 0.9850(4) 1.02147(18) 0.6166(6) 0.0599(6) Uiso 1.000000 GR
H26c H 1.0561(11) 0.9823(3) 0.5836(2) 0.0599(6) Uiso 1.000000 GR
C4 C 1.21691(18) 0.80957(18) 0.32183(6) 0.0454(5) Uani 1.000000 .
H4 H 1.23140(18) 0.79251(18) 0.29184(6) 0.0544(6) Uiso 1.000000 R
C5 C 1.16810(16) 0.73504(16) 0.34766(6) 0.0399(4) Uani 1.000000 .
H5 H 1.14771(16) 0.66609(16) 0.33538(6) 0.0479(5) Uiso 1.000000 R
C89 C 0.58095(18) 0.00606(13) 0.10823(7) 0.0405(4) Uani 1.000000 .
H89a H 0.5423(13) -0.0303(4) 0.07580(15) 0.0607(6) Uiso 1.000000 GR
H89b H 0.66424(18) 0.01000(13) 0.1165(5) 0.0607(6) Uiso 1.000000 GR
H89c H 0.5368(12) -0.0299(4) 0.1305(4) 0.0607(6) Uiso 1.000000 GR
C29 C 1.17974(17) 1.42929(13) 0.49810(8) 0.0409(4) Uani 1.000000 .
H29a H 1.2576(4) 1.4794(3) 0.4965(6) 0.0613(6) Uiso 1.000000 GR
H29b H 1.1203(10) 1.4199(3) 0.4685(3) 0.0613(6) Uiso 1.000000 GR
H29c H 1.1530(14) 1.4530(6) 0.5249(3) 0.0613(6) Uiso 1.000000 GR
C23 C 1.51752(18) 1.13866(16) 0.49444(7) 0.0426(4) Uani 1.000000 .
H23a H 1.5811(10) 1.1253(10) 0.51560(17) 0.0639(6) Uiso 1.000000 GR
H23b H 1.4478(4) 1.0753(5) 0.4824(5) 0.0639(6) Uiso 1.000000 GR
H23c H 1.5476(14) 1.1677(5) 0.4676(3) 0.0639(6) Uiso 1.000000 GR
C8 C 1.20723(17) 0.80989(16) 0.57435(6) 0.0410(4) Uani 1.000000 .
H8 H 1.23178(17) 0.83963(16) 0.60691(6) 0.0492(5) Uiso 1.000000 R
C56 C 0.23315(18) 0.20858(16) 0.16746(7) 0.0426(4) Uani 1.000000 .
H56a H 0.1865(11) 0.13690(16) 0.1671(5) 0.0639(6) Uiso 1.000000 GR
H56b H 0.2181(14) 0.2249(9) 0.13523(14) 0.0639(6) Uiso 1.000000 GR
H56c H 0.3191(4) 0.2225(9) 0.1787(3) 0.0639(6) Uiso 1.000000 GR
C32 C 0.92977(17) 0.37990(16) 0.33845(7) 0.0461(5) Uani 1.000000 .
H32 H 0.97211(17) 0.44694(16) 0.35498(7) 0.0553(5) Uiso 1.000000 R
C92 C 0.26280(17) 0.93963(16) 0.03391(6) 0.0432(4) Uani 1.000000 .
H92 H 0.32446(17) 0.93557(16) 0.01915(6) 0.0518(5) Uiso 1.000000 R
C54 C 0.3843(2) 0.38586(17) 0.41713(7) 0.0505(5) Uani 1.000000 .
H54a H 0.3444(15) 0.3239(2) 0.4295(4) 0.0758(7) Uiso 1.000000 GR
H54b H 0.4519(3) 0.4326(11) 0.4421(3) 0.0758(7) Uiso 1.000000 GR
H54c H 0.3267(13) 0.4178(13) 0.40718(16) 0.0758(7) Uiso 1.000000 GR
C33 C 0.98874(16) 0.31291(18) 0.33830(7) 0.0485(5) Uani 1.000000 .
H33 H 1.06975(16) 0.33304(18) 0.35567(7) 0.0581(6) Uiso 1.000000 R
C84 C 0.95127(16) 0.47088(17) 0.20311(8) 0.0463(4) Uani 1.000000 .
H84a H 0.9839(3) 0.54491(17) 0.2075(6) 0.0695(7) Uiso 1.000000 GR
H84b H 0.96579(18) 0.4485(11) 0.2340(3) 0.0695(7) Uiso 1.000000 GR
H84c H 0.9909(3) 0.4449(11) 0.1818(3) 0.0695(7) Uiso 1.000000 GR
C93 C 0.21502(17) 1.01312(16) 0.02423(7) 0.0444(4) Uani 1.000000 .
H93 H 0.24567(17) 1.06001(16) 0.00395(7) 0.0533(5) Uiso 1.000000 R
C7 C 1.17500(19) 0.70589(17) 0.56227(7) 0.0465(5) Uani 1.000000 .
H7 H 1.17923(19) 0.66513(17) 0.58637(7) 0.0558(5) Uiso 1.000000 R
C83 C 0.75535(19) 0.48003(19) 0.21113(7) 0.0473(5) Uani 1.000000 .
H83a H 0.7737(13) 0.4684(11) 0.24409(15) 0.0710(7) Uiso 1.000000 GR
H83b H 0.7852(12) 0.5529(3) 0.2102(5) 0.0710(7) Uiso 1.000000 GR
H83c H 0.6680(2) 0.4506(9) 0.1982(4) 0.0710(7) Uiso 1.000000 GR
C86 C 0.46377(19) 0.35238(16) -0.01119(7) 0.0471(4) Uani 1.000000 .
H86a H 0.4341(11) 0.3788(12) 0.01393(8) 0.0707(7) Uiso 1.000000 GR
H86b H 0.4992(4) 0.4064(9) -0.0290(5) 0.0707(7) Uiso 1.000000 GR
H86c H 0.3968(7) 0.2971(3) -0.0328(5) 0.0707(7) Uiso 1.000000 GR
C57 C 0.06418(17) 0.25843(17) 0.18147(8) 0.0477(5) Uani 1.000000 .
H57a H 0.0565(3) 0.2862(12) 0.1517(3) 0.0716(7) Uiso 1.000000 GR
H57b H 0.0139(3) 0.18614(19) 0.1755(6) 0.0716(7) Uiso 1.000000 GR
H57c H 0.0378(5) 0.2935(11) 0.2049(3) 0.0716(7) Uiso 1.000000 GR
C87 C 0.6131(2) 0.27537(18) -0.02659(7) 0.0552(5) Uani 1.000000 .
H87a H 0.6558(15) 0.3322(3) -0.0415(5) 0.0827(8) Uiso 1.000000 GR
H87b H 0.6694(14) 0.2460(14) -0.01161(14) 0.0827(8) Uiso 1.000000 GR
H87c H 0.5482(3) 0.2239(11) -0.0508(4) 0.0827(8) Uiso 1.000000 GR
C53 C 0.52642(19) 0.31491(18) 0.38943(8) 0.0510(5) Uani 1.000000 .
H53a H 0.5929(8) 0.3631(6) 0.4143(5) 0.0765(7) Uiso 1.000000 GR
H53b H 0.4905(5) 0.2519(7) 0.4016(6) 0.0765(7) Uiso 1.000000 GR
H53c H 0.5570(12) 0.3010(13) 0.36181(17) 0.0765(7) Uiso 1.000000 GR
C27 C 1.16401(19) 1.19533(16) 0.66283(7) 0.0452(4) Uani 1.000000 .
H27a H 1.0847(2) 1.1916(10) 0.6668(3) 0.0678(6) Uiso 1.000000 GR
H27b H 1.2017(14) 1.1697(8) 0.68919(8) 0.0678(6) Uiso 1.000000 GR
H27c H 1.2148(13) 1.2658(3) 0.6627(2) 0.0678(6) Uiso 1.000000 GR
C24 C 1.58534(19) 1.31382(15) 0.54011(9) 0.0522(5) Uani 1.000000 .
H24a H 1.5567(4) 1.3623(4) 0.5545(6) 0.0784(8) Uiso 1.000000 GR
H24b H 1.6472(8) 1.3043(3) 0.5640(5) 0.0784(8) Uiso 1.000000 GR
H24c H 1.6196(11) 1.3397(7) 0.51355(14) 0.0784(8) Uiso 1.000000 GR

loop_
_atom_site_aniso_label
_atom_site_aniso_U_11
_atom_site_aniso_U_22
_atom_site_aniso_U_33
_atom_site_aniso_U_12
_atom_site_aniso_U_13
_atom_site_aniso_U_23
Cu1 0.02765(11) 0.01810(10) 0.02935(11) 0.01148(8) 0.00412(8) 0.00299(8)
Cu3 0.02160(10) 0.02121(10) 0.03700(12) 0.01190(8) 0.00774(8) 0.00431(8)
Cu2 0.02451(11) 0.01935(10) 0.04416(13) 0.01118(8) 0.01249(9) 0.00592(9)
S11 0.02583(16) 0.02348(16) 0.03519(18) 0.01258(13) 0.00481(13) 0.00973(13)
S35 0.03186(18) 0.03565(19) 0.03231(18) 0.02271(16) 0.01359(14) 0.00920(15)
S41 0.02940(17) 0.01836(15) 0.0410(2) 0.00704(13) 0.01556(15) 0.00695(14)
S71 0.02892(17) 0.02067(16) 0.03615(18) 0.00886(13) 0.00808(14) 0.00603(13)
S65 0.02473(17) 0.03173(19) 0.0439(2) 0.01575(15) 0.01052(15) -0.00217(15)
S5 0.02983(18) 0.02223(17) 0.0438(2) 0.01050(14) 0.00391(15) -0.00149(15)
S95 0.03008(18) 0.02854(18) 0.03598(19) 0.01730(15) -0.00174(14) 0.00104(14)
O3 0.0415(7) 0.0567(8) 0.0338(6) 0.0238(6) 0.0181(5) 0.0075(5)
O6 0.0322(6) 0.0417(7) 0.0430(7) 0.0135(5) -0.0081(5) -0.0017(5)
N43 0.0217(5) 0.0172(5) 0.0282(6) 0.0091(4) 0.0068(4) 0.0055(4)
N73 0.0225(5) 0.0206(5) 0.0266(6) 0.0124(5) 0.0051(4) 0.0044(4)
O5 0.0504(7) 0.0359(6) 0.0524(7) 0.0302(6) 0.0052(6) 0.0072(5)
N10 0.0269(6) 0.0211(5) 0.0267(6) 0.0125(5) 0.0065(5) 0.0046(4)
N13 0.0200(5) 0.0171(5) 0.0313(6) 0.0091(4) 0.0054(4) 0.0036(4)
O4 0.0521(8) 0.0485(7) 0.0586(8) 0.0393(7) 0.0205(6) 0.0186(6)
O1 0.0274(6) 0.0451(7) 0.0580(8) 0.0075(5) 0.0026(5) 0.0032(6)
O2 0.0559(8) 0.0235(6) 0.0655(9) 0.0190(6) 0.0051(7) -0.0072(6)
N40 0.0225(6) 0.0208(6) 0.0362(6) 0.0099(5) 0.0070(5) 0.0035(5)
N70 0.0214(6) 0.0218(6) 0.0346(6) 0.0109(5) 0.0060(5) 0.0030(5)
O91 0.0373(7) 0.0680(9) 0.0410(7) 0.0081(6) 0.0190(6) -0.0058(6)
O92 0.0382(7) 0.0372(7) 0.1014(12) 0.0280(6) 0.0077(7) -0.0048(7)
N100 0.0360(7) 0.0285(6) 0.0389(7) 0.0224(6) 0.0072(6) 0.0024(5)
C9A 0.0224(6) 0.0232(6) 0.0292(7) 0.0130(5) 0.0085(5) 0.0069(5)
C99A 0.0244(7) 0.0218(6) 0.0333(7) 0.0108(5) 0.0006(6) -0.0024(5)
C65A 0.0235(6) 0.0257(7) 0.0308(7) 0.0125(6) 0.0071(5) 0.0028(5)
C46 0.0200(6) 0.0171(6) 0.0347(7) 0.0091(5) 0.0096(5) 0.0070(5)
C10A 0.0231(6) 0.0284(7) 0.0255(6) 0.0152(6) 0.0041(5) 0.0043(5)
C39A 0.0240(6) 0.0207(6) 0.0268(6) 0.0106(5) 0.0072(5) 0.0048(5)
C51 0.0210(6) 0.0220(6) 0.0368(8) 0.0104(5) 0.0080(6) 0.0063(6)
C69A 0.0233(6) 0.0223(6) 0.0262(6) 0.0119(5) 0.0055(5) 0.0036(5)
C21 0.0231(6) 0.0258(7) 0.0274(7) 0.0106(5) 0.0033(5) 0.0003(5)
C44 0.0280(7) 0.0203(6) 0.0300(7) 0.0133(5) 0.0063(5) 0.0045(5)
C16 0.0202(6) 0.0197(6) 0.0290(7) 0.0093(5) 0.0012(5) 0.0016(5)
C75 0.0328(7) 0.0233(7) 0.0298(7) 0.0148(6) 0.0001(6) 0.0023(5)
C36 0.0230(7) 0.0279(7) 0.0282(7) 0.0091(6) 0.0081(5) 0.0065(6)
C95A 0.0240(7) 0.0232(7) 0.0346(7) 0.0113(6) 0.0011(6) -0.0010(6)
C17 0.0213(6) 0.0249(7) 0.0333(7) 0.0104(5) 0.0046(5) 0.0048(6)
C5A 0.0271(7) 0.0245(7) 0.0367(8) 0.0140(6) 0.0097(6) 0.0076(6)
C20 0.0266(7) 0.0346(8) 0.0261(7) 0.0136(6) 0.0028(5) 0.0032(6)
C45 0.0313(7) 0.0195(6) 0.0310(7) 0.0112(6) 0.0074(6) 0.0051(5)
C81 0.0320(7) 0.0269(7) 0.0289(7) 0.0159(6) 0.0107(6) 0.0062(6)
C72 0.0240(6) 0.0225(6) 0.0271(7) 0.0100(5) 0.0053(5) 0.0039(5)
C77 0.0219(6) 0.0261(7) 0.0331(7) 0.0120(5) 0.0089(5) 0.0064(6)
C4A 0.0271(7) 0.0328(8) 0.0297(7) 0.0174(6) 0.0033(6) -0.0006(6)
C76 0.0229(6) 0.0225(6) 0.0311(7) 0.0133(5) 0.0104(5) 0.0067(5)
C74 0.0288(7) 0.0253(7) 0.0270(7) 0.0171(6) 0.0016(5) 0.0022(5)
C39 0.0246(7) 0.0252(7) 0.0359(8) 0.0108(6) 0.0075(6) 0.0057(6)
C47 0.0255(7) 0.0239(7) 0.0351(8) 0.0097(6) 0.0094(6) 0.0093(6)
C64A 0.0229(7) 0.0282(7) 0.0334(7) 0.0130(6) 0.0086(6) 0.0064(6)
C12 0.0197(6) 0.0223(6) 0.0304(7) 0.0097(5) 0.0046(5) 0.0068(5)
C50 0.0228(7) 0.0212(7) 0.0450(9) 0.0062(5) 0.0086(6) 0.0036(6)
C14 0.0231(6) 0.0175(6) 0.0399(8) 0.0088(5) 0.0099(6) 0.0043(6)
C34A 0.0242(7) 0.0367(8) 0.0287(7) 0.0135(6) 0.0092(6) 0.0096(6)
C18 0.0223(7) 0.0357(8) 0.0388(8) 0.0155(6) 0.0054(6) 0.0073(6)
C19 0.0267(7) 0.0374(8) 0.0317(7) 0.0164(6) -0.0001(6) 0.0060(6)
C78 0.0264(7) 0.0261(7) 0.0400(8) 0.0068(6) 0.0103(6) 0.0041(6)
C100 0.0315(7) 0.0295(7) 0.0290(7) 0.0142(6) 0.0005(6) -0.0039(6)
C70A 0.0224(6) 0.0246(7) 0.0299(7) 0.0110(5) 0.0072(5) 0.0059(5)
C99 0.0245(7) 0.0260(7) 0.0400(8) 0.0112(6) 0.0009(6) 0.0024(6)
C94A 0.0326(8) 0.0308(8) 0.0298(7) 0.0148(6) -0.0015(6) -0.0016(6)
C66 0.0344(8) 0.0243(7) 0.0398(8) 0.0144(6) 0.0081(6) -0.0009(6)
C1 0.0311(7) 0.0400(8) 0.0348(8) 0.0219(7) 0.0104(6) 0.0151(7)
C42 0.0233(6) 0.0209(6) 0.0320(7) 0.0082(5) 0.0089(5) 0.0050(5)
C15 0.0254(7) 0.0198(6) 0.0456(9) 0.0113(5) 0.0127(6) 0.0095(6)
C25 0.0264(7) 0.0387(8) 0.0313(7) 0.0182(6) 0.0085(6) 0.0079(6)
C35A 0.0292(7) 0.0252(7) 0.0281(7) 0.0138(6) 0.0101(6) 0.0050(5)
C38 0.0268(7) 0.0324(8) 0.0367(8) 0.0052(6) 0.0090(6) 0.0046(6)
C9 0.0325(8) 0.0351(8) 0.0298(7) 0.0178(6) 0.0092(6) 0.0056(6)
C69 0.0232(7) 0.0260(7) 0.0356(8) 0.0124(6) 0.0065(6) 0.0030(6)
C55 0.0274(7) 0.0267(7) 0.0359(8) 0.0080(6) 0.0005(6) 0.0052(6)
C98 0.0278(7) 0.0340(8) 0.0373(8) 0.0087(6) 0.0045(6) 0.0046(6)
C82 0.0256(7) 0.0310(8) 0.0326(8) 0.0105(6) 0.0024(6) 0.0065(6)
C94 0.0367(8) 0.0370(9) 0.0342(8) 0.0125(7) -0.0047(7) 0.0044(7)
C49 0.0306(8) 0.0214(7) 0.0519(10) 0.0066(6) 0.0166(7) 0.0114(7)
C64 0.0244(7) 0.0421(9) 0.0421(9) 0.0182(7) 0.0065(6) 0.0103(7)
C67 0.0318(8) 0.0237(7) 0.0427(9) 0.0073(6) 0.0057(7) -0.0016(6)
C68 0.0234(7) 0.0301(8) 0.0399(8) 0.0081(6) 0.0055(6) 0.0018(6)
C48 0.0355(8) 0.0269(7) 0.0416(9) 0.0107(6) 0.0136(7) 0.0153(6)
C96 0.0233(7) 0.0249(7) 0.0443(9) 0.0110(6) 0.0047(6) -0.0029(6)
C52 0.0337(8) 0.0293(8) 0.0313(8) 0.0069(6) 0.0061(6) 0.0092(6)
C31 0.0336(8) 0.0299(8) 0.0367(8) 0.0047(6) 0.0081(7) 0.0033(6)
C80 0.0419(9) 0.0335(8) 0.0320(8) 0.0170(7) 0.0156(7) 0.0114(6)
C61 0.0275(7) 0.0269(7) 0.0387(8) 0.0107(6) 0.0070(6) 0.0026(6)
C28 0.0335(8) 0.0218(7) 0.0499(10) 0.0094(6) 0.0040(7) -0.0035(7)
C2 0.0372(9) 0.0682(12) 0.0342(8) 0.0341(9) 0.0148(7) 0.0237(8)
C3 0.0460(9) 0.0223(7) 0.0370(8) 0.0150(7) 0.0166(7) 0.0032(6)
C97 0.0278(7) 0.0336(8) 0.0409(9) 0.0098(6) 0.0087(6) -0.0021(7)
C22 0.0245(7) 0.0370(8) 0.0454(9) 0.0170(6) 0.0122(6) 0.0179(7)
C6 0.0431(9) 0.0321(8) 0.0578(11) 0.0227(7) 0.0189(8) 0.0224(8)
C85 0.0452(9) 0.0307(8) 0.0269(7) 0.0150(7) 0.0056(7) 0.0050(6)
C91 0.0370(8) 0.0418(9) 0.0346(8) 0.0199(7) 0.0056(7) -0.0026(7)
C37 0.0415(9) 0.0232(7) 0.0396(9) 0.0032(6) 0.0136(7) 0.0003(6)
C62 0.0291(8) 0.0350(8) 0.0370(8) 0.0053(7) 0.0027(6) 0.0004(7)
C58 0.0330(8) 0.0297(8) 0.0585(11) 0.0183(7) 0.0177(8) 0.0075(7)
C88 0.0302(8) 0.0368(8) 0.0493(10) 0.0217(7) 0.0084(7) 0.0018(7)
C59 0.0489(10) 0.0199(7) 0.0504(10) 0.0151(7) 0.0118(8) 0.0062(7)
C79 0.0369(8) 0.0286(8) 0.0437(9) 0.0106(7) 0.0195(7) 0.0126(7)
C63 0.0219(7) 0.0489(10) 0.0412(9) 0.0115(7) 0.0004(6) 0.0062(8)
C34 0.0241(7) 0.0627(12) 0.0386(9) 0.0195(8) 0.0097(7) 0.0184(8)
C26 0.0233(7) 0.0425(9) 0.0531(10) 0.0116(7) 0.0075(7) 0.0089(8)
C4 0.0435(10) 0.0800(14) 0.0266(8) 0.0401(10) 0.0082(7) 0.0064(8)
C5 0.0387(9) 0.0533(11) 0.0326(8) 0.0288(8) 0.0026(7) -0.0071(7)
C89 0.0471(10) 0.0243(8) 0.0486(10) 0.0185(7) -0.0007(8) 0.0025(7)
C29 0.0441(9) 0.0256(8) 0.0629(11) 0.0205(7) 0.0174(8) 0.0168(8)
C23 0.0444(10) 0.0534(11) 0.0458(10) 0.0290(9) 0.0215(8) 0.0198(8)
C8 0.0433(9) 0.0608(12) 0.0309(8) 0.0290(9) 0.0146(7) 0.0158(8)
C56 0.0435(10) 0.0522(11) 0.0376(9) 0.0220(9) 0.0133(7) 0.0102(8)
C32 0.0341(9) 0.0474(11) 0.0368(9) -0.0057(8) 0.0044(7) 0.0043(8)
C92 0.0379(9) 0.0542(11) 0.0335(8) 0.0155(8) 0.0056(7) -0.0003(8)
C54 0.0520(11) 0.0496(11) 0.0410(10) 0.0072(9) 0.0159(9) 0.0005(8)
C33 0.0223(8) 0.0700(13) 0.0411(10) 0.0043(8) 0.0027(7) 0.0157(9)
C84 0.0294(8) 0.0555(12) 0.0525(11) 0.0175(8) 0.0016(8) 0.0116(9)
C93 0.0392(9) 0.0516(11) 0.0330(8) 0.0101(8) -0.0008(7) 0.0091(8)
C7 0.0528(11) 0.0570(12) 0.0496(11) 0.0337(10) 0.0226(9) 0.0338(9)
C83 0.0494(11) 0.0743(14) 0.0337(9) 0.0377(10) 0.0149(8) 0.0148(9)
C86 0.0451(10) 0.0478(11) 0.0434(10) 0.0189(9) -0.0029(8) 0.0043(8)
C57 0.0369(9) 0.0563(12) 0.0521(11) 0.0263(9) -0.0013(8) 0.0070(9)
C87 0.0759(15) 0.0563(13) 0.0366(10) 0.0330(11) 0.0104(10) -0.0062(9)
C53 0.0442(10) 0.0561(12) 0.0478(11) 0.0200(9) -0.0042(8) 0.0115(9)
C27 0.0495(11) 0.0520(11) 0.0441(10) 0.0270(9) 0.0204(8) 0.0031(8)
C24 0.0409(10) 0.0366(10) 0.0823(15) 0.0107(8) 0.0253(10) 0.0194(10)

loop_
_geom_bond_atom_site_label_1
_geom_bond_atom_site_label_2
_geom_bond_distance
_geom_bond_site_symmetry_2
_geom_bond_publ_flag
Cu1 N10 1.8755(12) . ?
Cu1 C12 1.8657(14) . ?
Cu3 N70 1.8846(12) . ?
Cu3 C72 1.8766(14) . ?
Cu2 N40 1.8843(12) . ?
Cu2 C42 1.8720(14) . ?
S11 C12 1.7035(14) . ?
S11 C15 1.7240(16) . ?
S35 O3 1.4429(12) . ?
S35 O4 1.4473(12) . ?
S35 C34A 1.7240(17) . ?
S35 C35A 1.7355(15) . ?
S41 C45 1.7228(16) . ?
S41 C42 1.7033(14) . ?
S71 C75 1.7316(16) . ?
S71 C72 1.6998(15) . ?
S65 O91 1.4429(15) . ?
S65 O92 1.4480(14) . ?
S65 C65A 1.7302(15) . ?
S65 C64A 1.7326(16) . ?
S5 O1 1.4461(13) . ?
S5 O2 1.4454(13) . ?
S5 C5A 1.7302(17) . ?
S5 C4A 1.7337(17) . ?
S95 O6 1.4432(13) . ?
S95 O5 1.4363(12) . ?
S95 C95A 1.7448(16) . ?
S95 C94A 1.7455(17) . ?
N43 C46 1.4531(17) . ?
N43 C44 1.4012(17) . ?
N43 C42 1.3435(18) . ?
N73 C72 1.3462(19) . ?
N73 C76 1.4525(18) . ?
N73 C74 1.4023(17) . ?
N10 C9A 1.3847(18) . ?
N10 C10A 1.3763(19) . ?
N13 C16 1.4526(17) . ?
N13 C12 1.3449(19) . ?
N13 C14 1.3992(17) . ?
N40 C39A 1.3767(18) . ?
N40 C36 1.3812(19) . ?
N70 C69A 1.3810(19) . ?
N70 C70A 1.3810(18) . ?
N100 C99A 1.380(2) . ?
N100 C100 1.384(2) . ?
C9A C5A 1.402(2) . ?
C9A C9 1.412(2) . ?
C99A C95A 1.405(2) . ?
C99A C99 1.399(2) . ?
C65A C69A 1.4068(19) . ?
C65A C66 1.398(2) . ?
C46 C51 1.396(2) . ?
C46 C47 1.399(2) . ?
C10A C4A 1.408(2) . ?
C10A C1 1.417(2) . ?
C39A C39 1.418(2) . ?
C39A C35A 1.4075(19) . ?
C51 C50 1.399(2) . ?
C51 C55 1.519(2) . ?
C69A C69 1.416(2) . ?
C21 C16 1.398(2) . ?
C21 C20 1.399(2) . ?
C21 C25 1.521(2) . ?
C44 C45 1.351(2) . ?
C44 C58 1.489(2) . ?
C16 C17 1.404(2) . ?
C75 C74 1.352(2) . ?
C75 C89 1.499(2) . ?
C36 C34A 1.409(2) . ?
C36 C31 1.411(2) . ?
C95A C96 1.394(2) . ?
C17 C18 1.397(2) . ?
C17 C22 1.521(2) . ?
C5A C6 1.402(2) . ?
C20 C19 1.386(2) . ?
C45 C59 1.497(2) . ?
C81 C76 1.403(2) . ?
C81 C80 1.397(2) . ?
C81 C85 1.519(2) . ?
C77 C76 1.394(2) . ?
C77 C78 1.398(2) . ?
C77 C82 1.521(2) . ?
C4A C5 1.404(2) . ?
C74 C88 1.492(2) . ?
C39 C38 1.375(2) . ?
C47 C48 1.397(2) . ?
C47 C52 1.522(2) . ?
C64A C70A 1.409(2) . ?
C64A C64 1.402(2) . ?
C50 C49 1.382(2) . ?
C14 C15 1.353(2) . ?
C14 C28 1.491(2) . ?
C34A C34 1.404(2) . ?
C18 C19 1.383(2) . ?
C78 C79 1.386(2) . ?
C100 C94A 1.398(2) . ?
C100 C91 1.405(2) . ?
C70A C61 1.416(2) . ?
C99 C98 1.381(2) . ?
C94A C94 1.399(3) . ?
C66 C67 1.371(2) . ?
C1 C2 1.378(2) . ?
C15 C29 1.497(2) . ?
C25 C26 1.529(2) . ?
C25 C27 1.527(2) . ?
C35A C3 1.402(2) . ?
C38 C37 1.400(3) . ?
C9 C8 1.374(2) . ?
C69 C68 1.378(2) . ?
C55 C56 1.526(3) . ?
C55 C57 1.526(2) . ?
C98 C97 1.398(2) . ?
C82 C84 1.528(2) . ?
C82 C83 1.517(2) . ?
C94 C93 1.379(3) . ?
C49 C48 1.386(3) . ?
C64 C63 1.380(3) . ?
C67 C68 1.401(2) . ?
C96 C97 1.376(3) . ?
C52 C54 1.525(3) . ?
C52 C53 1.533(3) . ?
C31 C32 1.383(3) . ?
C80 C79 1.379(3) . ?
C61 C62 1.378(2) . ?
C2 C4 1.390(3) . ?
C3 C37 1.373(3) . ?
C22 C23 1.523(2) . ?
C22 C24 1.526(3) . ?
C6 C7 1.372(3) . ?
C85 C86 1.534(3) . ?
C85 C87 1.531(3) . ?
C91 C92 1.380(3) . ?
C62 C63 1.397(3) . ?
C34 C33 1.367(3) . ?
C4 C5 1.377(3) . ?
C8 C7 1.396(3) . ?
C32 C33 1.390(3) . ?
C92 C93 1.396(3) . ?

loop_
_geom_angle_atom_site_label_1
_geom_angle_atom_site_label_2
_geom_angle_atom_site_label_3
_geom_angle
_geom_angle_site_symmetry_1
_geom_angle_site_symmetry_3
_geom_angle_publ_flag
C12 Cu1 N10 176.44(6) . . ?
C72 Cu3 N70 175.82(6) . . ?
C42 Cu2 N40 174.83(6) . . ?
C15 S11 C12 94.17(7) . . ?
O4 S35 O3 115.22(8) . . ?
C34A S35 O3 109.02(8) . . ?
C34A S35 O4 110.94(8) . . ?
C35A S35 O3 109.98(7) . . ?
C35A S35 O4 109.93(8) . . ?
C35A S35 C34A 100.80(7) . . ?
C42 S41 C45 94.20(7) . . ?
C72 S71 C75 94.19(7) . . ?
O92 S65 O91 115.54(10) . . ?
C65A S65 O91 109.38(8) . . ?
C65A S65 O92 109.76(8) . . ?
C64A S65 O91 109.67(8) . . ?
C64A S65 O92 110.55(9) . . ?
C64A S65 C65A 100.94(7) . . ?
O2 S5 O1 116.24(9) . . ?
C5A S5 O1 109.76(8) . . ?
C5A S5 O2 109.76(8) . . ?
C4A S5 O1 109.04(8) . . ?
C4A S5 O2 110.35(8) . . ?
C4A S5 C5A 100.54(7) . . ?
O5 S95 O6 117.86(8) . . ?
C95A S95 O6 107.95(8) . . ?
C95A S95 O5 110.62(8) . . ?
C94A S95 O6 107.29(8) . . ?
C94A S95 O5 111.03(8) . . ?
C94A S95 C95A 100.66(7) . . ?
C44 N43 C46 122.75(11) . . ?
C42 N43 C46 120.00(11) . . ?
C42 N43 C44 117.21(12) . . ?
C76 N73 C72 119.59(11) . . ?
C74 N73 C72 117.24(12) . . ?
C74 N73 C76 122.78(12) . . ?
C9A N10 Cu1 118.33(10) . . ?
C10A N10 Cu1 122.35(10) . . ?
C10A N10 C9A 119.31(12) . . ?
C12 N13 C16 119.62(11) . . ?
C14 N13 C16 122.97(12) . . ?
C14 N13 C12 117.30(12) . . ?
C39A N40 Cu2 119.94(10) . . ?
C36 N40 Cu2 120.17(10) . . ?
C36 N40 C39A 119.75(12) . . ?
C69A N70 Cu3 118.65(9) . . ?
C70A N70 Cu3 122.03(10) . . ?
C70A N70 C69A 119.31(12) . . ?
C100 N100 C99A 123.45(13) . . ?
C5A C9A N10 124.72(13) . . ?
C9 C9A N10 118.90(13) . . ?
C9 C9A C5A 116.29(13) . . ?
C95A C99A N100 121.47(14) . . ?
C99 C99A N100 120.53(14) . . ?
C99 C99A C95A 117.97(14) . . ?
C69A C65A S65 117.93(11) . . ?
C66 C65A S65 119.64(11) . . ?
C66 C65A C69A 122.29(13) . . ?
C51 C46 N43 118.57(13) . . ?
C47 C46 N43 118.06(13) . . ?
C47 C46 C51 123.36(13) . . ?
C4A C10A N10 125.06(14) . . ?
C1 C10A N10 118.85(14) . . ?
C1 C10A C4A 116.00(14) . . ?
C39 C39A N40 118.92(13) . . ?
C35A C39A N40 125.11(13) . . ?
C35A C39A C39 115.94(13) . . ?
C50 C51 C46 116.99(14) . . ?
C55 C51 C46 122.95(13) . . ?
C55 C51 C50 120.03(14) . . ?
C65A C69A N70 125.01(13) . . ?
C69 C69A N70 119.07(12) . . ?
C69 C69A C65A 115.84(13) . . ?
C20 C21 C16 117.17(13) . . ?
C25 C21 C16 123.06(13) . . ?
C25 C21 C20 119.73(13) . . ?
C45 C44 N43 111.43(13) . . ?
C58 C44 N43 121.17(13) . . ?
C58 C44 C45 127.39(13) . . ?
C21 C16 N13 118.74(12) . . ?
C17 C16 N13 117.80(13) . . ?
C17 C16 C21 123.45(13) . . ?
C74 C75 S71 109.55(11) . . ?
C89 C75 S71 121.88(13) . . ?
C89 C75 C74 128.56(15) . . ?
C34A C36 N40 125.12(14) . . ?
C31 C36 N40 119.08(14) . . ?
C31 C36 C34A 115.73(14) . . ?
C99A C95A S95 118.11(12) . . ?
C96 C95A S95 120.30(12) . . ?
C96 C95A C99A 121.33(15) . . ?
C18 C17 C16 116.79(14) . . ?
C22 C17 C16 122.88(13) . . ?
C22 C17 C18 120.32(13) . . ?
C9A C5A S5 119.48(11) . . ?
C6 C5A S5 118.55(13) . . ?
C6 C5A C9A 121.88(15) . . ?
C19 C20 C21 120.82(14) . . ?
C44 C45 S41 109.73(11) . . ?
C59 C45 S41 122.34(12) . . ?
C59 C45 C44 127.92(15) . . ?
C80 C81 C76 117.22(14) . . ?
C85 C81 C76 122.40(13) . . ?
C85 C81 C80 120.38(14) . . ?
S71 C72 Cu3 127.44(8) . . ?
N73 C72 Cu3 124.31(10) . . ?
N73 C72 S71 107.56(10) . . ?
C78 C77 C76 117.22(14) . . ?
C82 C77 C76 122.28(13) . . ?
C82 C77 C78 120.37(14) . . ?
C10A C4A S5 118.83(11) . . ?
C5 C4A S5 118.81(13) . . ?
C5 C4A C10A 122.16(16) . . ?
C81 C76 N73 117.62(13) . . ?
C77 C76 N73 119.26(13) . . ?
C77 C76 C81 123.10(13) . . ?
C75 C74 N73 111.44(13) . . ?
C88 C74 N73 120.56(14) . . ?
C88 C74 C75 127.99(14) . . ?
C38 C39 C39A 121.94(14) . . ?
C48 C47 C46 117.17(14) . . ?
C52 C47 C46 122.66(13) . . ?
C52 C47 C48 120.14(14) . . ?
C70A C64A S65 117.63(11) . . ?
C64 C64A S65 119.62(12) . . ?
C64 C64A C70A 122.50(15) . . ?
S11 C12 Cu1 127.71(9) . . ?
N13 C12 Cu1 124.42(10) . . ?
N13 C12 S11 107.38(10) . . ?
C49 C50 C51 121.23(15) . . ?
C15 C14 N13 111.39(13) . . ?
C28 C14 N13 121.37(13) . . ?
C28 C14 C15 127.21(14) . . ?
C36 C34A S35 119.43(12) . . ?
C34 C34A S35 117.95(13) . . ?
C34 C34A C36 122.25(16) . . ?
C19 C18 C17 121.27(14) . . ?
C18 C19 C20 120.49(14) . . ?
C79 C78 C77 121.06(15) . . ?
C94A C100 N100 121.80(15) . . ?
C91 C100 N100 119.83(15) . . ?
C91 C100 C94A 118.36(16) . . ?
C64A C70A N70 124.89(13) . . ?
C61 C70A N70 119.09(13) . . ?
C61 C70A C64A 115.90(13) . . ?
C98 C99 C99A 120.29(15) . . ?
C100 C94A S95 117.83(13) . . ?
C94 C94A S95 120.46(13) . . ?
C94 C94A C100 121.18(16) . . ?
C67 C66 C65A 120.21(14) . . ?
C2 C1 C10A 121.50(17) . . ?
S41 C42 Cu2 126.59(8) . . ?
N43 C42 Cu2 125.66(10) . . ?
N43 C42 S41 107.43(10) . . ?
C14 C15 S11 109.72(11) . . ?
C29 C15 S11 122.85(13) . . ?
C29 C15 C14 127.43(16) . . ?
C26 C25 C21 109.73(13) . . ?
C27 C25 C21 111.61(14) . . ?
C27 C25 C26 110.43(15) . . ?
C39A C35A S35 119.59(11) . . ?
C3 C35A S35 118.32(12) . . ?
C3 C35A C39A 121.83(14) . . ?
C37 C38 C39 120.77(15) . . ?
C8 C9 C9A 121.71(16) . . ?
C68 C69 C69A 121.69(14) . . ?
C56 C55 C51 109.80(13) . . ?
C57 C55 C51 111.91(15) . . ?
C57 C55 C56 110.06(15) . . ?
C97 C98 C99 121.09(16) . . ?
C84 C82 C77 112.98(14) . . ?
C83 C82 C77 109.03(13) . . ?
C83 C82 C84 110.05(16) . . ?
C93 C94 C94A 119.75(17) . . ?
C48 C49 C50 120.26(14) . . ?
C63 C64 C64A 119.60(15) . . ?
C68 C67 C66 119.05(15) . . ?
C67 C68 C69 120.85(14) . . ?
C49 C48 C47 120.99(15) . . ?
C97 C96 C95A 119.80(15) . . ?
C54 C52 C47 111.94(14) . . ?
C53 C52 C47 110.57(15) . . ?
C53 C52 C54 110.93(16) . . ?
C32 C31 C36 121.62(18) . . ?
C79 C80 C81 121.09(15) . . ?
C62 C61 C70A 121.55(15) . . ?
C4 C2 C1 121.13(17) . . ?
C37 C3 C35A 120.48(15) . . ?
C96 C97 C98 119.43(15) . . ?
C23 C22 C17 111.71(13) . . ?
C24 C22 C17 110.32(16) . . ?
C24 C22 C23 111.27(15) . . ?
C7 C6 C5A 120.08(17) . . ?
C86 C85 C81 111.69(14) . . ?
C87 C85 C81 109.71(16) . . ?
C87 C85 C86 111.32(16) . . ?
C92 C91 C100 119.87(17) . . ?
C3 C37 C38 118.98(15) . . ?
C63 C62 C61 121.11(16) . . ?
C80 C79 C78 120.30(15) . . ?
C62 C63 C64 119.24(15) . . ?
C33 C34 C34A 119.95(18) . . ?
C5 C4 C2 119.40(16) . . ?
C4 C5 C4A 119.74(17) . . ?
C7 C8 C9 120.74(17) . . ?
C33 C32 C31 121.00(18) . . ?
C93 C92 C91 121.44(18) . . ?
C32 C33 C34 119.34(16) . . ?
C92 C93 C94 119.28(18) . . ?
C8 C7 C6 119.24(16) . . ?

_iucr_refine_fcf_details         
;
data_PK14_CCDC1
_computing_structure_refinement   'olex2.refine (Bourhis et al., 2015)'
_shelx_refln_list_code            4
loop_
  _space_group_symop_id
  _space_group_symop_operation_xyz
  1  x,y,z
  2  -x,-y,-z

_space_group_crystal_system       triclinic
_space_group_IT_number            2
_space_group_name_H-M_alt         'P -1'
_space_group_name_Hall            '-P 1'
_symmetry_space_group_name_H-M    'P -1'
_symmetry_space_group_name_Hall   '-P 1'
_symmetry_Int_Tables_number       2
_cell_length_a                    12.21430(10)
_cell_length_b                    14.32990(10)
_cell_length_c                    28.98270(10)
_cell_angle_alpha                 94.4120(10)
_cell_angle_beta                  100.8830(10)
_cell_angle_gamma                 110.8080(10)
_cell_volume                      4599.03(7)
loop_
  _refln_index_h
  _refln_index_k
  _refln_index_l
  _refln_F_squared_calc
  _refln_F_squared_meas
  _refln_F_squared_sigma
  _refln_F_squared_weight
  _refln_observed_status
-15 2 5 198.301 164.807 6.558 19.111 o
-15 2 6 17.751 13.140 2.436 244.398 o
-15 2 7 80.677 60.716 3.760 54.259 o
-15 2 8 262.373 225.818 10.370 12.725 o
-15 2 9 69.007 34.901 2.867 72.182 o
-15 2 10 244.979 206.808 18.543 10.438 o
-15 2 11 38.424 20.625 2.601 127.810 o
-15 3 2 188.046 202.828 5.946 18.745 o
-15 3 3 97.956 83.086 3.169 43.822 o
-15 3 4 5.177 3.896 2.641 589.247 o
-15 3 5 1503.870 1481.930 68.302 0.766 o
-15 3 6 635.283 541.661 14.413 4.248 o
-15 3 7 88.966 89.656 4.414 43.922 o
-15 3 8 839.060 769.622 20.138 2.694 o
-15 3 9 245.380 236.812 7.246 14.147 o
-15 3 10 223.900 250.495 16.678 11.167 o
-15 3 11 190.827 177.454 7.578 18.690 o
-15 3 12 203.614 188.644 11.322 15.591 o
-15 3 13 630.498 621.502 22.105 3.641 o
-15 4 1 977.424 1020.940 25.235 1.973 o
-15 4 2 0.033 0.762 2.852 1171.880 o
-15 4 3 981.735 747.973 25.664 2.220 o
-15 4 4 210.734 217.714 7.538 16.220 o
-15 4 5 127.321 133.508 6.168 28.396 o
-15 4 6 971.132 1049.220 36.615 1.727 o
-15 4 7 149.190 155.135 4.111 25.486 o
-15 4 8 162.210 153.338 4.096 24.074 o
-15 4 9 62.903 58.847 2.550 68.356 o
-15 4 10 6.634 8.788 2.453 461.902 o
-15 4 11 1156.200 1128.320 27.156 1.592 o
-15 4 12 435.141 449.620 29.226 4.485 o
-15 4 13 502.144 455.639 22.973 4.733 o
-15 4 14 1624.860 1353.740 61.197 0.799 o
-15 4 15 6.442 7.465 1.629 583.721 o
-15 4 16 81.101 68.849 4.296 51.031 o
-15 5 1 458.131 495.275 18.812 5.342 o
-15 5 2 275.419 294.022 6.199 12.122 o
-15 5 3 178.585 191.026 4.675 20.435 o
-15 5 4 51.358 40.531 2.673 87.735 o
-15 5 5 183.805 186.591 5.221 19.974 o
-15 5 6 462.598 474.548 9.875 6.232 o
-15 5 7 1785.040 1807.920 44.909 0.746 o
-15 5 8 64.126 65.110 3.911 61.755 o
-15 5 9 0.576 1.816 2.190 1472.050 o
-15 5 10 87.931 99.789 3.203 44.337 o
-15 5 11 59.392 77.560 3.918 60.825 o
-15 5 12 600.460 541.308 23.055 3.914 o
-15 5 13 259.484 256.089 9.209 12.644 o
-15 5 14 659.904 623.282 19.081 3.664 o
-15 5 15 95.349 80.818 3.619 44.487 o
-15 5 16 16.076 9.505 1.629 306.821 o
-15 6 1 164.758 169.620 4.196 22.890 o
-15 6 2 18.315 18.452 1.859 231.280 o
-15 6 3 353.024 374.656 11.238 8.349 o
-15 6 4 495.630 538.420 11.839 5.439 o
-15 6 5 21.798 24.358 2.929 173.036 o
-15 6 6 69.248 69.839 4.038 57.104 o
-15 6 7 321.813 340.742 8.144 9.819 o
-15 6 8 263.578 298.250 6.456 12.411 o
-15 6 9 109.499 108.281 3.403 36.812 o
-15 6 10 7.261 3.132 1.541 670.094 o
-15 6 11 335.738 313.875 9.812 9.534 o
-15 6 12 1.053 0.758 1.723 2027.860 o
-15 6 13 725.664 729.921 20.140 3.127 o
-15 6 14 1.898 3.562 1.955 1115.120 o
-15 6 15 282.238 291.115 11.512 10.761 o
-15 7 1 1.639 2.406 1.693 1461.960 o
-15 7 2 399.638 406.302 9.285 7.562 o
-15 7 3 60.467 59.591 5.580 59.870 o
-15 7 4 261.082 265.501 8.326 12.660 o
-15 7 5 364.980 376.185 8.879 8.445 o
-15 7 6 31.785 24.669 1.950 146.314 o
-15 7 7 318.845 335.012 6.984 10.132 o
-15 7 8 275.949 293.804 8.628 11.614 o
-15 7 9 20.984 20.864 1.945 202.853 o
-15 7 10 63.653 64.639 4.918 59.009 o
-15 7 11 669.561 662.959 16.289 3.655 o
-15 7 12 230.841 213.173 18.292 10.805 o
-15 7 13 29.557 18.875 3.221 149.150 o
-15 7 14 86.099 64.020 4.256 50.017 o
-15 7 15 17.347 16.263 3.013 218.878 o
-15 7 16 70.588 56.297 3.922 60.478 o
-15 8 1 365.073 353.204 9.809 8.534 o
-15 8 2 80.101 77.625 3.656 50.855 o
-15 8 3 624.180 641.159 14.554 4.019 o
-15 8 4 895.914 890.585 22.228 2.335 o
-15 8 5 15.545 17.032 1.963 259.732 o
-15 8 6 370.271 385.861 10.683 8.033 o
-15 8 7 3927.280 3257.540 80.985 0.213 o
-15 8 8 29.267 28.902 1.936 147.741 o
-15 8 9 2.201 3.061 3.120 674.963 o
-15 8 10 168.108 173.515 8.491 19.983 o
-15 8 11 9.375 9.553 3.011 343.204 o
-15 8 12 2976.950 2740.170 245.861 0.117 o
-15 8 13 44.908 44.646 4.298 84.625 o
-15 8 14 438.558 382.365 14.577 6.583 o
-15 8 15 960.499 764.387 26.004 2.239 o
-15 9 1 133.623 133.536 4.762 28.675 o
-15 9 2 108.067 108.212 10.322 27.636 o
-15 9 3 84.029 76.394 8.105 39.480 o
-15 9 4 310.437 282.645 30.976 5.576 o
-15 9 5 252.345 246.287 49.620 3.240 o
-15 9 6 62.363 47.256 12.150 36.500 o
-15 9 7 515.487 528.366 19.480 4.722 o
-15 9 8 283.012 277.858 11.418 10.946 o
-15 9 9 340.492 327.371 12.727 8.761 o
-15 9 10 491.902 453.675 49.354 2.536 o
-15 9 11 163.324 145.911 7.443 22.315 o
-15 9 12 60.846 69.095 4.721 59.999 o
-15 9 13 1146.400 1001.700 33.465 1.589 o
-15 10 1 28.863 24.535 6.665 96.602 o
-15 10 2 856.135 688.458 171.255 0.314 o
-15 10 3 236.858 184.475 43.588 4.104 o
-15 10 4 653.393 520.692 115.899 0.654 o
-15 10 5 66.558 59.860 16.283 24.651 o
-15 10 6 235.840 210.464 8.692 14.700 o
-15 10 7 98.475 79.181 4.363 42.639 o
-15 10 9 73.227 90.874 5.292 47.503 o
-15 10 10 107.362 84.555 4.909 38.550 o
-15 10 11 385.738 340.145 12.628 7.874 o
-14 -1 2 12.171 8.610 2.051 360.172 o
-14 -1 3 1.597 0.566 1.435 2136.150 o
-14 -1 4 62.823 73.227 3.498 61.191 o
-14 -1 5 419.853 396.894 10.906 7.161 o
-14 -1 6 311.129 270.528 10.176 10.588 o
-14 -1 7 386.383 373.191 13.922 7.417 o
-14 -1 8 427.813 413.401 9.340 7.093 o
-14 -1 9 29.091 24.700 2.533 149.575 o
-14 -1 10 264.136 252.301 13.349 11.258 o
-14 -1 11 35.847 31.622 3.799 110.890 o
-14 -1 13 1335.470 1239.950 41.516 1.178 o
-14 0 1 282.936 287.425 18.410 8.864 o
-14 0 2 9.594 14.134 2.131 352.629 o
-14 0 3 3196.820 2875.900 61.462 0.304 o
-14 0 4 57.386 58.532 2.643 72.651 o
-14 0 5 5.104 11.521 1.662 548.504 o
-14 0 6 1311.950 1382.600 34.341 1.216 o
-14 0 7 60.024 53.092 2.419 73.308 o
-14 0 8 42.821 40.807 4.352 88.973 o
-14 0 9 182.378 181.054 14.042 15.192 o
-14 0 10 579.358 657.029 37.657 2.823 o
-14 0 11 1423.690 1485.270 79.624 0.703 o
-14 0 12 112.953 107.086 4.783 34.754 o
-14 0 13 87.379 98.305 5.806 40.610 o
-14 0 14 7.595 7.831 2.267 465.448 o
-14 0 15 166.838 140.137 8.423 21.528 o
-14 0 16 807.950 694.287 17.444 2.991 o
-14 0 17 3.103 6.953 2.733 599.696 o
-14 0 18 1775.550 1237.760 40.861 0.903 o
-14 1 1 1252.880 1175.880 38.023 1.316 o
-14 1 2 450.414 447.272 9.915 6.530 o
-14 1 3 13.087 11.661 1.479 340.750 o
-14 1 4 318.687 349.344 7.074 9.947 o
-14 1 5 584.237 596.346 9.365 4.633 o
-14 1 6 180.363 167.805 4.742 21.256 o
-14 1 7 380.060 435.696 10.231 7.534 o
-14 1 8 323.110 334.598 7.306 9.986 o
-14 1 9 47.996 57.788 2.796 81.346 o
-14 1 10 5.281 3.635 1.886 735.530 o
-14 1 11 303.635 306.757 7.200 10.880 o
-14 1 12 270.895 271.045 6.614 12.604 o
-14 1 13 895.523 923.020 16.924 2.411 o
-14 1 14 33.411 36.192 2.555 121.607 o
-14 1 15 793.890 785.275 16.586 2.910 o
-14 1 16 259.716 282.293 11.425 11.553 o
-14 1 17 3.844 -0.536 1.856 1132.340 o
-14 1 18 0.012 -1.237 2.640 1465.190 o
-14 1 19 52.831 40.227 5.394 72.728 o
-14 1 20 0.928 -0.280 2.029 1873.210 o
-14 2 1 275.303 294.229 7.452 11.882 o
-14 2 2 1.475 2.354 1.344 1807.230 o
-14 2 3 258.155 260.633 7.989 12.945 o
-14 2 4 173.414 156.912 4.887 22.347 o
-14 2 5 62.183 61.858 2.361 68.187 o
-14 2 6 8.263 10.048 1.919 441.917 o
-14 2 7 44.579 72.653 2.757 77.470 o
-14 2 8 803.603 846.855 13.175 2.859 o
-14 2 9 199.490 175.406 4.830 19.337 o
-14 2 10 448.413 491.263 12.347 6.092 o
-14 2 11 494.166 534.851 12.872 5.394 o
-14 2 12 185.600 196.954 6.554 18.868 o
-14 2 13 0.245 0.388 3.133 979.072 o
-14 2 14 48.533 50.409 2.874 84.465 o
-14 2 15 31.418 25.701 2.650 139.442 o
-14 2 16 244.816 247.370 5.371 14.408 o
-14 2 17 19.750 15.030 1.880 233.053 o
-14 2 18 597.323 538.324 11.261 4.662 o
-14 2 19 169.808 156.279 5.052 22.652 o
-14 2 20 143.588 142.395 6.317 25.492 o
-14 3 1 30.787 42.700 2.897 117.630 o
-14 3 2 17.605 23.632 2.250 210.140 o
-14 3 3 79.471 59.552 2.932 56.839 o
-14 3 4 2.747 6.464 1.964 814.020 o
-14 3 5 74.612 83.838 3.399 52.385 o
-14 3 6 84.975 79.082 3.152 49.343 o
-14 3 7 4.295 8.873 2.037 605.394 o
-14 3 8 28.007 42.364 3.276 120.769 o
-14 3 9 28.805 37.137 3.171 125.967 o
-14 3 10 166.572 157.336 4.927 22.989 o
-14 3 11 202.855 212.116 5.383 17.633 o
-14 3 12 7.458 7.187 2.070 500.255 o
-14 3 13 14.344 15.224 2.145 276.682 o
-14 3 14 33.880 30.918 2.482 127.287 o
-14 3 15 173.699 169.734 5.024 21.649 o
-14 3 16 214.094 224.530 5.770 16.454 o
-14 3 17 348.085 338.141 7.380 9.356 o
-14 3 18 28.383 21.059 3.144 150.495 o
-14 3 19 178.529 195.315 10.620 17.172 o
-14 3 20 1.768 4.915 3.238 615.271 o
-14 3 21 267.612 239.036 19.605 9.237 o
-14 4 1 120.920 121.507 3.972 32.478 o
-14 4 2 17.228 15.917 2.308 240.419 o
-14 4 3 512.485 506.119 9.569 5.576 o
-14 4 4 917.291 1008.230 16.348 2.269 o
-14 4 5 2.993 3.147 1.936 984.395 o
-14 4 6 730.006 796.648 11.848 3.246 o
-14 4 7 288.183 322.034 6.832 11.166 o
-14 4 8 810.115 871.690 14.266 2.775 o
-14 4 9 18.320 23.710 2.884 192.734 o
-14 4 10 220.679 255.386 6.169 15.168 o
-14 4 11 3592.370 3730.850 49.747 0.241 o
-14 4 12 1365.960 1468.640 21.080 1.240 o
-14 4 13 258.046 284.501 5.852 12.983 o
-14 4 14 33.421 37.054 2.371 121.922 o
-14 4 15 152.374 183.609 5.244 22.932 o
-14 4 16 528.259 544.445 10.808 5.194 o
-14 4 17 2338.430 2330.160 48.056 0.496 o
-14 4 18 1291.510 1315.270 45.313 1.139 o
-14 4 19 1893.560 2014.540 134.850 0.325 o
-14 4 20 316.088 323.000 12.467 9.347 o
-14 4 21 51.010 46.653 3.197 82.475 o
-14 4 22 313.399 259.837 7.495 11.224 o
-14 5 1 0.958 2.916 1.756 1551.880 o
-14 5 2 916.716 933.241 13.256 2.408 o
-14 5 3 319.801 322.704 6.064 10.389 o
-14 5 4 639.460 735.354 11.036 3.821 o
-14 5 5 617.947 684.752 15.866 3.875 o
-14 5 6 791.155 857.809 13.584 2.873 o
-14 5 7 0.059 2.653 2.487 1248.790 o
-14 5 8 51.378 52.718 3.435 78.027 o
-14 5 9 70.957 72.560 3.505 56.744 o
-14 5 10 2118.150 2235.490 38.937 0.584 o
-14 5 11 291.958 324.765 6.489 11.071 o
-14 5 12 1631.110 1644.130 28.148 0.943 o
-14 5 13 145.471 160.467 5.208 24.978 o
-14 5 14 1007.010 1002.910 24.389 1.953 o
-14 5 15 0.945 4.275 3.227 687.182 o
-14 5 16 244.201 249.539 8.437 13.578 o
-14 5 17 282.620 258.381 11.342 11.253 o
-14 5 18 287.274 285.021 9.340 11.241 o
-14 5 19 480.437 445.072 27.840 4.395 o
-14 5 20 554.996 555.246 13.847 4.763 o
-14 5 21 101.140 120.322 7.830 31.634 o
-14 5 22 2.618 3.105 2.131 964.312 o
-14 6 1 26.941 36.232 2.195 141.329 o
-14 6 2 922.252 992.247 13.850 2.314 o
-14 6 3 328.924 318.588 6.394 10.165 o
-14 6 4 529.732 546.572 10.249 5.204 o
-14 6 5 467.697 498.362 9.576 6.066 o
-14 6 6 460.252 458.007 11.827 6.191 o
-14 6 7 1936.530 2095.320 41.740 0.652 o
-14 6 8 105.611 99.330 3.722 38.580 o
-14 6 9 260.257 239.320 6.396 13.679 o
-14 6 10 1110.180 1143.550 24.085 1.685 o
-14 6 11 143.819 138.179 5.138 26.625 o
-14 6 12 27.088 25.288 2.561 155.211 o
-14 6 13 76.093 62.525 3.172 57.389 o
-14 6 14 12.353 8.080 1.890 370.051 o
-14 6 15 0.257 2.096 2.316 1409.870 o
-14 6 16 149.968 144.967 4.418 25.855 o
-14 6 17 29.126 29.726 2.814 138.568 o
-14 6 18 30.348 24.545 3.818 130.538 o
-14 6 19 67.957 72.837 10.502 37.416 o
-14 6 20 136.287 154.638 5.854 26.003 o
-14 6 21 171.477 163.089 5.453 21.956 o
-14 7 1 7.186 13.948 2.491 379.411 o
-14 7 2 1049.360 1080.330 19.756 1.887 o
-14 7 3 1.736 2.817 2.389 995.296 o
-14 7 4 62.343 62.445 3.138 65.981 o
-14 7 5 122.519 129.197 4.242 31.259 o
-14 7 6 327.357 311.813 6.962 10.213 o
-14 7 7 606.418 623.843 14.543 4.169 o
-14 7 8 12.430 25.973 2.823 224.634 o
-14 7 9 854.256 934.570 22.789 2.368 o
-14 7 10 400.527 440.283 10.740 7.146 o
-14 7 11 174.419 189.954 6.805 19.846 o
-14 7 12 684.050 679.209 15.066 3.599 o
-14 7 13 2.255 1.205 2.280 1094.400 o
-14 7 14 1360.920 1493.670 57.092 0.921 o
-14 7 15 590.151 569.909 13.551 4.488 o
-14 7 16 4.375 8.827 2.275 568.072 o
-14 7 17 195.904 174.404 12.599 15.597 o
-14 7 18 0.473 0.154 1.602 3041.410 o
-14 7 19 61.234 42.426 3.256 74.368 o
-14 7 20 118.582 93.255 6.623 32.683 o
-14 8 1 606.609 680.832 11.871 4.121 o
-14 8 2 131.762 150.732 4.364 27.961 o
-14 8 3 41.312 57.427 2.972 88.402 o
-14 8 4 3200.930 3321.890 48.596 0.293 o
-14 8 5 283.795 309.579 7.568 11.352 o
-14 8 6 284.412 292.537 8.206 11.464 o
-14 8 7 82.706 89.466 4.263 46.375 o
-14 8 8 167.646 157.745 4.848 22.898 o
-14 8 9 3.747 8.440 2.188 623.215 o
-14 8 10 719.739 706.384 11.850 3.480 o
-14 8 11 1343.560 1216.380 21.244 1.384 o
-14 8 12 110.556 116.948 7.280 31.090 o
-14 8 13 408.740 354.393 8.808 7.880 o
-14 8 14 1781.820 1746.490 39.211 0.787 o
-14 8 15 61.618 71.686 4.344 59.994 o
-14 8 16 168.608 170.355 6.547 21.287 o
-14 8 17 162.377 122.612 6.921 23.991 o
-14 8 18 9.496 15.745 2.577 318.043 o
-14 8 19 819.239 704.815 17.576 2.931 o
-14 9 1 4.369 4.719 1.975 746.154 o
-14 9 2 7.655 18.216 2.659 322.780 o
-14 9 3 645.076 685.393 15.037 3.772 o
-14 9 4 1343.960 1435.240 36.442 1.149 o
-14 9 5 4543.860 4640.310 106.681 0.142 o
-14 9 6 767.976 778.283 26.990 2.656 o
-14 9 7 2105.810 2018.300 49.422 0.587 o
-14 9 8 503.964 456.037 15.537 5.437 o
-14 9 9 95.724 102.214 4.065 40.462 o
-14 9 10 533.334 577.369 12.514 4.922 o
-14 9 11 850.890 826.205 23.473 2.490 o
-14 9 12 1026.060 922.511 22.271 2.030 o
-14 9 13 2324.380 2129.320 49.529 0.518 o
-14 9 14 7.254 14.391 3.394 312.838 o
-14 9 15 535.198 500.090 30.461 3.745 o
-14 9 16 33.124 41.627 3.262 111.152 o
-14 9 17 37.633 40.125 4.085 98.381 o
-14 9 18 152.865 118.925 6.768 25.416 o
-14 9 19 1402.220 1109.460 37.162 1.225 o
-14 10 1 3.716 9.789 2.048 610.174 o
-14 10 2 101.373 90.721 4.968 39.225 o
-14 10 3 94.284 88.311 5.378 40.845 o
-14 10 4 491.702 413.115 21.967 5.061 o
-14 10 5 27.241 26.610 2.971 147.346 o
-14 10 6 385.349 379.160 23.028 5.945 o
-14 10 7 0.354 -0.238 3.542 784.055 o
-14 10 8 231.947 250.381 8.386 14.089 o
-14 10 9 730.053 743.930 19.095 3.125 o
-14 10 10 415.047 372.437 15.325 6.833 o
-14 10 11 20.965 21.492 2.542 191.026 o
-14 10 12 39.174 28.315 1.962 121.354 o
-14 10 13 34.676 28.011 6.328 90.366 o
-14 10 14 13.416 14.042 2.427 284.225 o
-14 10 15 343.140 286.242 13.205 9.014 o
-14 10 16 319.456 234.147 11.109 10.630 o
-14 10 17 0.612 0.168 2.382 1531.710 o
-14 10 18 20.424 15.672 2.369 215.477 o
-14 11 1 1.384 2.938 2.051 1224.850 o
-14 11 2 29.959 37.626 2.912 125.054 o
-14 11 3 210.229 204.812 28.886 7.345 o
-14 11 4 29.921 34.642 4.420 113.073 o
-14 11 5 286.294 281.187 11.331 10.833 o
-14 11 6 219.896 217.584 7.343 15.802 o
-14 11 7 2.152 2.186 2.220 1060.650 o
-14 11 8 255.778 238.181 12.375 12.055 o
-14 11 9 123.870 101.783 20.381 14.581 o
-14 11 10 30.128 27.282 3.650 129.678 o
-14 11 11 361.878 358.243 17.020 7.358 o
-14 11 12 3.004 0.754 1.914 1192.580 o
-14 11 13 20.684 16.231 2.048 218.253 o
-14 11 14 152.467 138.553 7.182 23.994 o
-14 11 15 8.579 6.899 2.459 432.508 o
-14 12 1 612.518 575.466 14.905 4.258 o
-14 12 2 103.429 107.181 6.032 35.179 o
-14 12 3 839.268 853.798 59.439 1.441 o
-14 12 4 17.299 17.244 2.107 239.167 o
-14 12 5 229.973 195.955 33.758 5.911 o
-14 12 6 522.397 505.740 19.349 4.764 o
-14 12 7 1580.200 1536.560 51.092 0.855 o
-14 12 8 19.555 27.707 3.794 159.684 o
-14 12 9 296.393 260.013 10.707 11.007 o
-14 12 10 13.077 13.486 1.784 316.111 o
-14 12 11 670.117 503.805 18.231 3.954 o
-14 12 12 120.275 106.862 5.549 32.438 o
-14 13 1 188.496 118.979 5.993 22.140 o
-14 13 2 6.544 6.322 2.444 507.684 o
-14 13 3 27.211 28.559 2.349 151.387 o
-14 13 4 319.469 272.265 7.859 10.805 o
-14 13 5 24.264 21.174 2.073 182.117 o
-14 13 6 1016.410 859.596 20.887 2.135 o
-14 13 7 14.915 20.261 1.789 254.366 o
-13 -4 8 423.290 375.677 13.857 6.905 o
-13 -3 1 45.773 37.925 3.262 93.778 o
-13 -3 2 102.504 102.995 4.456 38.046 o
-13 -3 3 69.997 79.192 4.802 52.456 o
-13 -3 4 72.074 81.882 5.858 48.241 o
-13 -3 5 102.637 95.186 3.675 39.988 o
-13 -3 6 626.494 707.290 18.728 3.642 o
-13 -3 7 631.158 679.057 19.228 3.661 o
-13 -3 8 7.722 14.119 1.793 410.917 o
-13 -3 9 77.974 70.297 3.131 54.490 o
-13 -3 10 463.808 429.698 14.314 6.066 o
-13 -3 11 362.140 353.934 10.898 8.423 o
-13 -3 12 3.295 1.701 2.093 982.427 o
-13 -2 1 23.310 30.051 2.332 163.309 o
-13 -2 2 56.427 73.448 3.274 65.899 o
-13 -2 3 461.969 509.405 10.894 5.973 o
-13 -2 4 27.157 27.782 2.579 150.391 o
-13 -2 5 14.373 19.567 2.153 253.777 o
-13 -2 6 430.416 444.327 8.533 6.916 o
-13 -2 7 18.220 13.884 2.082 246.375 o
-13 -2 8 68.894 69.372 3.058 59.750 o
-13 -2 9 17.382 14.091 2.043 254.111 o
-13 -2 10 0.027 3.180 2.155 1463.740 o
-13 -2 11 1934.010 2099.760 40.849 0.656 o
-13 -2 12 63.351 60.543 3.764 64.153 o
-13 -2 13 10.052 12.344 2.523 338.912 o
-13 -2 14 166.004 188.902 6.283 20.854 o
-13 -2 15 156.112 132.670 5.794 24.969 o
-13 -2 16 9.010 8.310 3.075 356.003 o
-13 -2 17 40.666 29.873 4.144 101.111 o
-13 -2 18 138.159 115.704 6.866 27.429 o
-13 -1 1 177.135 170.603 11.124 17.675 o
-13 -1 2 89.981 97.261 5.027 41.398 o
-13 -1 3 99.920 99.433 4.170 39.550 o
-13 -1 4 483.197 495.794 10.799 5.832 o
-13 -1 5 200.685 202.135 6.078 17.854 o
-13 -1 6 119.565 125.496 4.810 31.622 o
-13 -1 7 50.200 46.872 2.873 84.584 o
-13 -1 8 153.002 149.735 4.567 25.104 o
-13 -1 9 70.290 63.830 3.541 59.444 o
-13 -1 10 1.736 3.635 1.997 1117.310 o
-13 -1 11 506.270 573.971 12.581 5.146 o
-13 -1 12 257.666 280.563 6.380 12.966 o
-13 -1 13 87.846 86.235 3.154 46.825 o
-13 -1 14 22.282 24.127 2.157 183.474 o
-13 -1 15 0.301 0.576 2.188 1813.620 o
-13 -1 16 10.451 15.233 2.828 296.011 o
-13 -1 17 33.174 32.662 2.981 122.729 o
-13 -1 18 217.699 204.106 6.129 16.721 o
-13 -1 19 65.973 57.356 5.366 58.198 o
-13 -1 20 116.914 88.406 6.056 34.279 o
-13 -1 21 26.243 22.207 3.422 151.790 o
-13 0 1 496.480 481.593 13.191 5.590 o
-13 0 2 458.091 485.442 9.347 6.260 o
-13 0 3 45.447 43.578 2.849 92.542 o
-13 0 4 52.311 52.000 3.373 77.728 o
-13 0 5 15.582 15.960 2.430 251.434 o
-13 0 6 355.931 384.035 6.524 8.807 o
-13 0 7 351.508 351.536 6.604 9.227 o
-13 0 8 364.244 381.540 6.996 8.621 o
-13 0 9 296.467 283.368 8.003 11.280 o
-13 0 10 246.492 285.679 5.863 13.411 o
-13 0 11 177.447 214.046 4.944 19.504 o
-13 0 12 2.470 4.318 2.072 927.398 o
-13 0 13 110.381 99.193 3.492 37.621 o
-13 0 14 25.436 22.862 2.254 170.392 o
-13 0 15 1811.480 1770.020 30.657 0.806 o
-13 0 16 2548.510 2601.250 59.743 0.407 o
-13 0 17 1.212 4.885 2.316 958.339 o
-13 0 18 1065.730 1090.990 22.610 1.811 o
-13 0 19 208.807 224.596 5.895 16.718 o
-13 0 20 1107.820 1055.930 21.758 1.784 o
-13 0 21 605.025 585.197 12.990 4.371 o
-13 0 22 923.227 835.771 46.740 1.685 o
-13 1 1 896.606 855.334 13.739 2.556 o
-13 1 2 182.563 195.730 5.157 19.737 o
-13 1 3 2250.970 2405.930 28.932 0.546 o
-13 1 4 239.458 262.947 5.293 14.314 o
-13 1 5 54.544 55.785 3.316 74.165 o
-13 1 6 136.185 145.130 5.198 27.142 o
-13 1 7 71.386 63.628 3.074 59.937 o
-13 1 8 3415.450 3542.570 44.387 0.266 o
-13 1 9 1871.450 1972.250 26.031 0.750 o
-13 1 10 30.800 43.289 2.414 120.511 o
-13 1 11 1710.530 1823.920 29.453 0.846 o
-13 1 12 9.834 14.211 1.957 356.272 o
-13 1 13 6.422 13.302 2.256 422.044 o
-13 1 14 133.423 153.890 7.921 24.610 o
-13 1 15 426.007 460.255 13.613 6.387 o
-13 1 16 1700.840 1793.390 45.188 0.782 o
-13 1 17 1352.800 1400.850 22.419 1.274 o
-13 1 18 330.659 311.179 9.783 9.685 o
-13 1 19 1626.820 1609.000 27.862 0.958 o
-13 1 20 395.046 375.846 9.535 7.848 o
-13 1 21 12.896 12.853 3.398 255.912 o
-13 1 22 1703.990 1650.980 34.545 0.869 o
-13 1 23 38.944 32.197 2.674 113.318 o
-13 1 24 72.106 72.564 4.318 54.249 o
-13 2 1 21.351 21.938 1.998 196.688 o
-13 2 2 66.562 83.840 3.085 56.955 o
-13 2 3 222.868 204.987 5.222 16.673 o
-13 2 4 1027.580 1025.850 15.785 2.028 o
-13 2 5 199.656 210.189 5.209 17.963 o
-13 2 6 31.053 33.887 2.477 130.718 o
-13 2 7 223.487 212.374 4.544 16.600 o
-13 2 8 1836.870 1965.870 24.410 0.771 o
-13 2 9 897.106 1003.050 14.673 2.349 o
-13 2 10 593.286 587.903 9.113 4.609 o
-13 2 11 308.809 339.263 7.430 10.267 o
-13 2 12 3029.930 3278.790 49.191 0.313 o
-13 2 13 1042.830 1114.760 22.465 1.830 o
-13 2 14 42.884 42.674 2.937 96.277 o
-13 2 15 945.068 950.204 14.987 2.293 o
-13 2 16 7.161 7.624 2.452 463.748 o
-13 2 17 64.915 79.351 3.633 57.877 o
-13 2 18 41.038 30.960 3.012 108.234 o
-13 2 19 54.728 48.597 4.582 71.846 o
-13 2 20 151.068 122.750 5.797 26.195 o
-13 2 21 3.079 2.441 2.436 839.487 o
-13 2 22 0.533 2.567 2.358 1248.230 o
-13 2 23 461.526 456.948 9.250 6.392 o
-13 2 24 9.223 10.823 1.966 403.907 o
-13 2 25 84.014 72.293 2.795 51.736 o
-13 3 1 299.364 321.494 6.977 10.829 o
-13 3 2 369.621 344.534 8.987 8.642 o
-13 3 3 418.747 466.848 11.098 6.694 o
-13 3 4 15.574 16.556 2.609 243.432 o
-13 3 5 930.279 1034.000 16.674 2.206 o
-13 3 6 347.286 361.516 7.627 9.092 o
-13 3 7 461.800 466.114 9.332 6.330 o
-13 3 8 604.588 643.247 11.624 4.254 o
-13 3 9 16.713 23.336 3.211 195.392 o
-13 3 10 355.185 390.359 8.293 8.567 o
-13 3 11 37.988 33.024 2.782 113.646 o
-13 3 12 135.416 145.914 4.116 27.941 o
-13 3 13 413.863 414.383 8.301 7.380 o
-13 3 14 212.982 203.473 4.908 17.410 o
-13 3 15 21.125 22.491 2.491 188.398 o
-13 3 16 456.031 492.421 9.020 6.267 o
-13 3 17 155.468 172.702 6.522 22.411 o
-13 3 18 933.145 929.714 22.875 2.195 o
-13 3 19 11.123 8.824 2.515 351.297 o
-13 3 20 168.761 186.117 8.110 19.689 o
-13 3 21 38.420 23.776 3.110 119.801 o
-13 3 22 4.476 7.323 2.400 580.143 o
-13 3 23 221.256 244.686 9.741 14.193 o
-13 3 24 350.419 329.967 8.193 9.287 o
-13 3 25 0.028 2.030 1.462 2802.830 o
-13 4 1 260.091 270.505 7.132 12.898 o
-13 4 2 4.879 6.896 2.086 619.741 o
-13 4 3 183.218 222.498 5.389 18.605 o
-13 4 4 567.635 625.536 10.453 4.602 o
-13 4 5 17.894 18.473 2.542 219.447 o
-13 4 6 259.751 268.976 6.122 13.163 o
-13 4 7 69.878 63.362 3.554 59.786 o
-13 4 8 213.065 195.706 5.655 17.416 o
-13 4 9 3892.110 4033.860 47.346 0.211 o
-13 4 10 0.025 3.926 2.200 1324.570 o
-13 4 11 36.870 32.238 2.767 116.823 o
-13 4 12 119.995 133.050 4.766 30.918 o
-13 4 13 30.930 37.666 2.800 123.680 o
-13 4 14 66.534 68.113 3.251 61.099 o
-13 4 15 114.276 117.810 3.931 34.204 o
-13 4 16 365.979 441.223 8.247 7.928 o
-13 4 17 13.364 10.012 2.508 307.190 o
-13 4 18 8.123 10.805 2.217 413.626 o
-13 4 19 2318.400 2294.180 38.820 0.525 o
-13 4 20 361.801 381.310 12.916 7.884 o
-13 4 21 32.353 28.085 3.790 121.793 o
-13 4 22 57.115 52.195 4.101 70.544 o
-13 4 23 17.502 12.582 2.158 257.128 o
-13 4 24 1983.250 1979.280 46.127 0.640 o
-13 4 25 494.779 392.691 10.710 6.265 o
-13 5 1 270.813 293.581 6.340 12.262 o
-13 5 2 1750.180 2005.080 26.818 0.794 o
-13 5 3 130.990 161.647 4.770 27.029 o
-13 5 4 3406.180 3615.920 49.532 0.260 o
-13 5 5 1343.760 1355.500 20.727 1.316 o
-13 5 6 38.903 46.736 2.923 99.249 o
-13 5 7 513.376 497.236 9.643 5.605 o
-13 5 8 395.599 377.427 8.045 7.987 o
-13 5 9 1600.700 1799.430 24.369 0.933 o
-13 5 10 545.136 556.049 9.442 5.078 o
-13 5 11 57.298 74.695 3.248 64.936 o
-13 5 12 947.272 989.708 15.647 2.233 o
-13 5 13 118.620 114.123 3.979 33.648 o
-13 5 14 449.473 462.615 8.656 6.546 o
-13 5 15 107.450 109.029 3.518 37.109 o
-13 5 16 43.416 46.815 2.961 92.544 o
-13 5 17 1335.260 1348.720 38.748 1.166 o
-13 5 18 883.021 898.995 17.228 2.467 o
-13 5 19 215.924 222.598 7.892 15.676 o
-13 5 20 1421.850 1407.440 42.802 1.045 o
-13 5 21 111.736 116.104 5.034 33.786 o
-13 5 22 282.488 331.948 10.171 10.534 o
-13 5 23 252.370 265.385 8.697 12.879 o
-13 5 24 42.428 42.940 4.565 86.739 o
-13 6 1 578.405 599.910 11.985 4.546 o
-13 6 2 468.753 515.781 10.813 5.876 o
-13 6 3 253.661 262.771 6.887 13.354 o
-13 6 4 344.565 348.487 7.491 9.306 o
-13 6 5 2655.360 2815.440 39.027 0.405 o
-13 6 6 128.853 147.850 4.705 28.360 o
-13 6 7 16.088 11.617 2.430 267.866 o
-13 6 8 16.829 16.238 2.580 235.039 o
-13 6 9 935.883 928.170 14.820 2.343 o
-13 6 10 3284.480 3213.120 43.755 0.294 o
-13 6 11 25.971 23.499 2.557 162.894 o
-13 6 12 13.438 13.641 2.273 292.299 o
-13 6 13 229.258 230.296 5.493 15.550 o
-13 6 14 376.400 401.276 8.419 8.072 o
-13 6 15 2.804 4.949 2.041 863.234 o
-13 6 16 114.544 112.723 4.954 33.648 o
-13 6 17 529.516 499.635 12.733 5.251 o
-13 6 18 106.784 104.215 6.510 34.084 o
-13 6 19 491.547 433.029 13.802 5.817 o
-13 6 20 48.797 52.781 3.531 80.138 o
-13 6 21 358.936 308.094 49.109 2.975 o
-13 6 22 316.597 322.724 10.136 9.811 o
-13 6 23 45.406 24.495 2.633 108.639 o
-13 6 24 21.575 15.163 2.648 203.654 o
-13 7 1 401.789 434.139 9.996 7.250 o
-13 7 2 69.346 75.847 3.618 56.476 o
-13 7 3 134.812 167.931 4.761 26.114 o
-13 7 4 19.047 21.223 2.603 201.572 o
-13 7 5 947.536 920.598 14.925 2.323 o
-13 7 6 323.604 309.140 8.517 10.098 o
-13 7 7 108.767 119.915 3.924 35.165 o
-13 7 8 555.968 601.638 11.254 4.732 o
-13 7 9 813.060 838.232 13.467 2.836 o
-13 7 10 158.285 150.205 4.701 24.386 o
-13 7 11 68.695 62.661 3.241 61.468 o
-13 7 12 1111.170 1116.490 20.744 1.746 o
-13 7 13 18.438 18.669 2.117 224.303 o
-13 7 14 1325.480 1347.190 27.845 1.281 o
-13 7 15 187.132 192.019 6.010 19.178 o
-13 7 16 70.953 73.840 5.563 51.149 o
-13 7 17 1265.690 1178.810 31.088 1.388 o
-13 7 18 429.217 430.612 13.923 6.486 o
-13 7 19 2.879 3.485 2.570 767.390 o
-13 7 20 0.426 4.844 4.206 468.804 o
-13 7 21 497.492 470.715 29.789 4.044 o
-13 7 22 293.389 262.123 5.966 12.095 o
-13 7 23 120.652 89.881 3.917 35.870 o
-13 7 24 27.899 14.089 2.612 173.862 o
-13 8 1 365.001 370.370 8.788 8.510 o
-13 8 2 16.032 17.316 3.317 215.483 o
-13 8 3 981.473 1040.390 22.698 1.995 o
-13 8 4 26.874 34.526 3.051 135.595 o
-13 8 5 1296.410 1403.070 22.879 1.324 o
-13 8 6 323.336 335.633 7.587 9.928 o
-13 8 7 133.700 136.598 5.285 28.025 o
-13 8 8 116.627 135.670 4.498 31.517 o
-13 8 9 776.396 758.540 13.576 3.098 o
-13 8 10 7.391 9.918 2.152 450.389 o
-13 8 11 129.135 112.995 4.052 31.677 o
-13 8 12 902.148 950.975 16.184 2.374 o
-13 8 13 136.557 136.221 4.332 28.344 o
-13 8 14 291.720 303.378 6.859 11.335 o
-13 8 15 103.669 115.995 6.956 32.880 o
-13 8 16 9.622 11.450 2.516 354.633 o
-13 8 17 903.133 861.790 40.815 1.853 o
-13 8 18 177.271 185.564 12.201 16.519 o
-13 8 19 37.276 31.559 3.748 108.761 o
-13 8 20 157.016 165.293 12.589 18.008 o
-13 8 21 19.270 16.992 2.252 221.490 o
-13 8 22 639.484 556.571 25.689 3.528 o
-13 8 23 25.661 21.869 2.361 170.171 o
-13 9 1 3.429 6.801 1.933 747.065 o
-13 9 2 1386.960 1434.360 22.783 1.225 o
-13 9 3 3387.670 3521.060 57.862 0.260 o
-13 9 4 8.629 19.059 2.680 301.956 o
-13 9 5 2845.440 2932.900 51.125 0.354 o
-13 9 6 203.308 238.317 7.480 16.085 o
-13 9 7 118.980 115.831 4.986 32.447 o
-13 9 8 371.598 384.448 8.943 8.243 o
-13 9 9 38.108 41.543 3.150 103.240 o
-13 9 10 2356.660 2350.580 73.239 0.427 o
-13 9 11 826.427 845.878 19.820 2.630 o
-13 9 12 317.889 328.259 8.182 10.059 o
-13 9 13 122.249 132.235 4.756 30.610 o
-13 9 14 7.618 5.799 2.216 504.197 o
-13 9 15 24.069 23.485 3.020 163.791 o
-13 9 16 464.481 478.047 20.455 5.185 o
-13 9 17 54.231 74.335 5.063 61.168 o
-13 9 18 4150.430 3809.210 139.383 0.151 o
-13 9 19 0.029 4.371 2.262 1227.720 o
-13 9 20 555.985 441.405 43.618 2.781 o
-13 9 21 742.516 679.518 43.150 2.179 o
-13 9 22 152.159 127.295 15.501 16.951 o
-13 10 1 217.701 222.671 7.349 15.782 o
-13 10 2 1.596 4.991 2.841 729.631 o
-13 10 3 903.712 967.624 20.974 2.258 o
-13 10 4 979.973 1001.230 21.777 2.051 o
-13 10 5 2179.530 2137.320 39.479 0.579 o
-13 10 6 645.491 671.782 22.229 3.460 o
-13 10 7 103.462 77.810 5.428 39.668 o
-13 10 8 12.467 17.567 3.842 222.039 o
-13 10 9 288.674 259.837 14.327 10.214 o
-13 10 10 463.153 455.067 10.149 6.315 o
-13 10 11 1351.880 1306.320 33.676 1.221 o
-13 10 12 402.003 369.820 16.488 6.843 o
-13 10 13 235.566 227.715 6.675 14.972 o
-13 10 14 17.276 15.119 2.795 229.834 o
-13 10 15 17.416 17.964 2.370 229.021 o
-13 10 16 869.661 923.263 23.974 2.315 o
-13 10 17 371.626 351.315 18.604 6.992 o
-13 10 18 21.677 19.033 2.069 202.222 o
-13 10 19 837.131 835.731 34.870 2.160 o
-13 10 20 130.897 109.760 4.733 31.076 o
-13 10 21 88.064 62.207 3.131 51.659 o
-13 11 1 659.829 705.038 20.127 3.433 o
-13 11 2 161.015 162.343 7.656 21.616 o
-13 11 3 1035.730 1038.550 28.569 1.801 o
-13 11 4 13.145 7.231 2.453 333.917 o
-13 11 5 361.839 313.804 19.721 7.145 o
-13 11 6 336.665 329.703 14.759 8.408 o
-13 11 7 32.074 29.773 3.422 124.423 o
-13 11 8 138.540 160.768 5.799 25.386 o
-13 11 9 1310.330 1239.900 40.291 1.212 o
-13 11 10 2.882 4.559 1.931 909.931 o
-13 11 11 79.475 90.338 4.480 46.996 o
-13 11 12 80.434 70.002 4.798 49.933 o
-13 11 13 14.528 14.055 2.684 262.456 o
-13 11 14 1511.570 1407.750 27.797 1.102 o
-13 11 15 109.189 92.363 4.590 37.535 o
-13 11 16 400.937 305.708 53.023 2.594 o
-13 11 17 38.849 38.826 3.595 101.171 o
-13 11 18 301.511 296.318 34.064 5.039 o
-13 11 19 116.430 100.435 10.773 26.383 o
-13 12 1 600.909 599.230 17.307 4.123 o
-13 12 2 404.805 412.576 8.488 7.513 o
-13 12 3 56.653 50.736 3.147 75.129 o
-13 12 4 682.586 668.378 17.698 3.523 o
-13 12 5 80.568 105.675 10.609 31.454 o
-13 12 6 24.035 22.401 3.000 166.452 o
-13 12 7 253.882 283.097 7.623 12.779 o
-13 12 8 296.860 321.326 15.514 9.051 o
-13 12 9 8.525 5.260 3.013 402.894 o
-13 12 10 5.243 9.313 2.908 446.381 o
-13 12 11 3.067 6.812 2.860 580.883 o
-13 12 12 395.973 349.050 41.467 3.531 o
-13 12 13 202.146 176.569 6.742 18.338 o
-13 12 14 3.785 2.067 1.921 955.594 o
-13 12 15 952.074 872.589 22.121 2.232 o
-13 12 16 222.183 193.044 9.991 15.228 o
-13 12 17 17.921 17.998 3.114 206.524 o
-13 13 1 156.486 158.183 4.784 24.095 o
-13 13 2 81.053 65.119 2.933 54.596 o
-13 13 3 215.110 157.349 5.266 18.698 o
-13 13 4 766.029 796.790 29.644 2.538 o
-13 13 5 622.538 616.546 23.971 3.577 o
-13 13 6 826.005 786.892 36.542 2.173 o
-13 13 7 304.466 324.859 14.572 9.094 o
-13 13 8 395.393 368.617 15.724 7.051 o
-13 13 9 1855.200 1894.160 49.365 0.683 o
-13 13 10 1634.940 1609.930 96.398 0.531 o
-13 13 11 1252.620 1175.810 102.855 0.605 o
-13 13 12 870.312 802.979 27.607 2.350 o
-13 13 13 687.096 538.739 19.778 3.699 o
-13 13 14 716.445 580.795 51.525 1.964 o
-13 13 15 18.873 21.581 2.695 199.608 o
-13 14 1 105.641 105.809 6.487 34.188 o
-13 14 2 254.541 253.997 11.453 12.153 o
-13 14 3 237.067 236.709 10.986 13.240 o
-13 14 4 782.899 800.073 20.090 2.818 o
-13 14 5 826.694 874.035 21.631 2.542 o
-13 14 6 1848.000 1879.970 43.502 0.714 o
-13 14 7 182.402 150.874 15.798 14.714 o
-13 14 8 341.893 326.756 26.085 6.058 o
-13 14 9 302.651 266.965 10.853 10.703 o
-13 14 10 85.277 68.405 3.093 51.581 o
-12 -5 1 1378.880 1259.420 41.775 1.135 o
-12 -5 3 347.303 339.818 14.603 8.170 o
-12 -5 4 637.037 690.109 26.300 3.240 o
-12 -5 5 20.608 29.425 5.062 130.824 o
-12 -5 6 91.421 90.610 5.006 41.995 o
-12 -5 7 445.325 475.000 11.341 6.306 o
-12 -5 8 180.465 209.284 6.458 18.837 o
-12 -5 9 479.886 530.414 12.433 5.576 o
-12 -5 10 22.820 23.293 3.138 167.335 o
-12 -5 11 526.589 521.007 22.804 4.390 o
-12 -5 12 0.753 4.148 2.475 999.575 o
-12 -4 1 245.464 268.306 7.725 13.356 o
-12 -4 2 65.582 64.189 3.936 61.075 o
-12 -4 3 122.071 126.037 5.399 30.569 o
-12 -4 4 29.892 31.036 3.448 127.886 o
-12 -4 5 584.385 649.658 15.537 4.171 o
-12 -4 6 757.311 778.134 17.447 3.022 o
-12 -4 7 5.015 7.023 2.145 600.117 o
-12 -4 8 3.263 6.893 2.246 689.969 o
-12 -4 9 1057.560 1136.550 37.272 1.550 o
-12 -4 10 57.149 82.119 4.529 58.994 o
-12 -4 11 404.621 427.748 10.987 7.150 o
-12 -4 12 324.053 351.706 9.589 9.412 o
-12 -4 13 0.476 2.702 2.531 1129.610 o
-12 -4 14 17.945 18.960 3.707 188.263 o
-12 -4 15 484.437 507.858 21.773 4.795 o
-12 -3 1 62.477 71.903 4.042 60.320 o
-12 -3 2 378.009 382.636 11.047 7.883 o
-12 -3 3 149.784 166.573 6.998 22.951 o
-12 -3 4 104.511 103.485 4.783 37.075 o
-12 -3 5 1730.780 1813.900 30.887 0.833 o
-12 -3 6 1.054 5.538 2.249 963.561 o
-12 -3 7 201.951 236.499 5.790 16.805 o
-12 -3 8 1814.030 2010.370 28.611 0.759 o
-12 -3 9 584.640 626.488 11.003 4.460 o
-12 -3 10 1511.250 1590.050 28.502 1.034 o
-12 -3 11 6.958 5.700 2.803 461.143 o
-12 -3 12 26.507 24.088 4.264 135.117 o
-12 -3 13 2050.000 2148.960 50.061 0.582 o
-12 -3 14 23.498 22.446 3.146 166.154 o
-12 -3 15 272.115 311.435 7.004 11.795 o
-12 -3 16 534.552 562.991 15.279 4.790 o
-12 -3 17 90.553 70.833 5.079 45.331 o
-12 -3 18 624.374 577.501 23.090 3.710 o
-12 -3 19 48.272 53.923 5.992 67.683 o
-12 -3 20 0.612 0.456 3.428 789.094 o
-12 -2 1 1102.520 1201.740 18.534 1.721 o
-12 -2 2 505.580 505.288 10.581 5.583 o
-12 -2 3 2375.580 2436.480 37.850 0.497 o
-12 -2 4 95.085 110.330 5.328 37.786 o
-12 -2 5 233.484 248.269 7.878 14.230 o
-12 -2 6 1165.070 1220.250 20.721 1.597 o
-12 -2 7 684.649 761.976 12.101 3.506 o
-12 -2 8 922.781 983.833 15.947 2.290 o
-12 -2 9 57.277 68.411 2.985 67.895 o
-12 -2 10 0.347 1.358 2.121 1708.840 o
-12 -2 11 24.382 28.406 2.553 159.585 o
-12 -2 12 65.832 67.599 3.182 61.853 o
-12 -2 13 365.236 394.215 7.348 8.447 o
-12 -2 14 105.139 101.058 3.672 38.532 o
-12 -2 15 490.498 464.695 8.599 6.066 o
-12 -2 16 12.748 13.705 2.251 301.626 o
-12 -2 17 480.925 487.797 10.864 5.891 o
-12 -2 18 1924.630 1952.830 38.779 0.692 o
-12 -2 19 0.409 3.460 2.329 1199.630 o
-12 -2 20 140.502 133.369 7.381 25.487 o
-12 -2 21 339.431 327.629 10.617 9.166 o
-12 -2 22 0.024 -2.266 4.007 636.279 o
-12 -2 23 38.399 28.895 4.570 101.725 o
-12 -1 1 371.206 342.788 6.745 8.892 o
-12 -1 2 1232.650 1259.710 17.918 1.512 o
-12 -1 3 250.777 277.749 5.796 13.412 o
-12 -1 4 4239.640 4411.590 55.239 0.179 o
-12 -1 5 20.613 23.804 2.425 188.758 o
-12 -1 6 82.958 85.614 3.328 48.571 o
-12 -1 7 884.420 904.508 13.966 2.518 o
-12 -1 8 541.275 537.356 9.572 5.181 o
-12 -1 9 1109.880 1144.860 16.878 1.770 o
-12 -1 10 830.157 888.096 13.812 2.698 o
-12 -1 11 41.615 55.170 3.234 88.168 o
-12 -1 12 91.299 111.000 3.663 40.975 o
-12 -1 13 57.188 73.239 3.056 66.026 o
-12 -1 14 161.226 163.953 4.963 23.180 o
-12 -1 15 705.881 689.188 11.857 3.583 o
-12 -1 16 2.430 1.700 2.002 1165.800 o
-12 -1 17 1011.420 1009.650 15.984 2.073 o
-12 -1 18 779.898 856.991 15.126 2.876 o
-12 -1 19 40.871 34.343 3.153 104.612 o
-12 -1 20 892.414 851.541 14.704 2.555 o
-12 -1 21 19.357 21.169 2.820 195.381 o
-12 -1 22 342.787 342.533 9.337 9.149 o
-12 -1 23 901.977 867.755 18.559 2.431 o
-12 -1 24 4.431 1.042 2.572 740.144 o
-12 -1 25 65.806 57.335 3.745 63.648 o
-12 -1 26 527.703 442.236 16.578 5.203 o
-12 0 1 1979.080 2013.510 20.584 0.712 o
-12 0 2 1048.810 1076.200 12.714 1.974 o
-12 0 3 2199.350 2229.270 24.795 0.592 o
-12 0 4 4.569 10.355 2.152 542.051 o
-12 0 5 12.530 7.755 2.310 347.633 o
-12 0 6 269.147 260.369 6.172 12.957 o
-12 0 7 771.745 828.447 12.479 3.014 o
-12 0 8 4654.240 4707.920 58.528 0.154 o
-12 0 9 79.235 84.721 3.282 50.357 o
-12 0 10 45.641 37.355 2.346 99.043 o
-12 0 11 521.732 503.606 7.388 5.613 o
-12 0 12 116.012 126.995 3.780 33.052 o
-12 0 13 973.234 982.110 13.903 2.209 o
-12 0 14 112.462 119.206 4.139 34.245 o
-12 0 15 298.088 271.119 7.183 11.576 o
-12 0 16 1565.130 1575.420 32.825 0.978 o
-12 0 17 3.980 4.356 3.516 479.604 o
-12 0 18 57.755 79.841 4.467 59.490 o
-12 0 19 256.051 247.145 6.519 13.662 o
-12 0 20 80.508 77.218 5.055 47.874 o
-12 0 21 919.984 919.760 23.226 2.226 o
-12 0 22 11.764 14.890 3.026 273.393 o
-12 0 23 132.832 147.350 5.838 26.941 o
-12 0 24 384.733 408.244 10.393 7.654 o
-12 0 25 0.105 1.586 2.791 1125.830 o
-12 0 26 103.179 90.996 4.620 39.209 o
-12 0 27 335.747 291.657 12.077 9.345 o
-12 1 1 222.261 238.849 4.425 15.951 o
-12 1 2 155.758 163.354 3.859 24.344 o
-12 1 3 280.707 269.620 5.080 12.552 o
-12 1 4 629.169 594.677 8.723 4.359 o
-12 1 5 734.496 721.575 10.743 3.411 o
-12 1 6 659.998 686.279 10.772 3.850 o
-12 1 7 913.602 939.736 12.918 2.413 o
-12 1 8 1117.220 1112.210 16.742 1.786 o
-12 1 9 1530.370 1525.720 20.207 1.087 o
-12 1 10 32.965 44.684 2.720 112.490 o
-12 1 11 396.190 387.395 7.624 7.934 o
-12 1 12 0.710 4.152 2.190 1156.610 o
-12 1 13 15.882 23.153 2.717 212.977 o
-12 1 14 3313.720 3516.670 44.716 0.276 o
-12 1 15 4.229 6.767 2.368 612.116 o
-12 1 16 1199.960 1259.540 30.551 1.421 o
-12 1 17 492.744 549.325 11.364 5.447 o
-12 1 18 3.242 1.709 2.599 804.590 o
-12 1 19 2.029 5.365 2.913 666.857 o
-12 1 20 638.473 635.405 15.469 3.915 o
-12 1 21 1422.560 1475.540 45.455 0.999 o
-12 1 22 1001.290 1098.070 68.647 1.071 o
-12 1 23 0.735 3.202 2.553 1032.430 o
-12 1 24 318.940 350.669 8.311 9.745 o
-12 1 25 26.456 17.765 2.357 175.849 o
-12 1 26 0.614 1.714 2.614 1141.440 o
-12 1 27 545.131 521.841 19.471 4.548 o
-12 1 28 5.520 8.683 2.498 495.361 o
-12 2 1 721.608 797.258 11.318 3.292 o
-12 2 2 1361.550 1377.610 17.577 1.308 o
-12 2 3 3.308 5.591 2.170 751.985 o
-12 2 4 1929.670 2134.710 25.495 0.696 o
-12 2 5 66.386 83.748 3.443 56.341 o
-12 2 6 396.025 446.519 9.538 7.290 o
-12 2 7 25.478 36.947 3.676 128.908 o
-12 2 8 3.863 0.595 2.871 715.802 o
-12 2 9 816.824 899.559 20.171 2.573 o
-12 2 10 105.739 129.887 4.626 34.046 o
-12 2 11 499.083 505.413 9.332 5.722 o
-12 2 12 75.236 88.709 3.486 50.870 o
-12 2 13 603.104 671.869 9.375 4.259 o
-12 2 14 40.790 44.781 2.908 97.961 o
-12 2 15 2015.360 2224.450 27.712 0.645 o
-12 2 16 1.169 4.310 2.331 996.828 o
-12 2 17 648.502 714.583 12.427 3.782 o
-12 2 18 53.748 67.066 4.260 66.864 o
-12 2 19 781.287 756.296 17.924 2.962 o
-12 2 20 456.097 450.560 10.437 6.400 o
-12 2 21 54.806 70.730 3.833 66.303 o
-12 2 22 34.764 34.464 2.907 117.847 o
-12 2 23 23.883 33.295 3.878 135.304 o
-12 2 24 276.404 290.237 7.337 11.935 o
-12 2 25 616.506 556.426 14.767 4.298 o
-12 2 26 28.815 19.613 2.533 159.702 o
-12 2 27 10.579 8.110 1.658 422.509 o
-12 2 28 35.286 24.148 3.478 122.919 o
-12 3 1 105.199 126.889 4.583 34.517 o
-12 3 2 1208.820 1348.880 20.976 1.462 o
-12 3 3 3.369 11.838 2.296 543.132 o
-12 3 4 60.750 62.779 3.153 66.955 o
-12 3 5 2345.420 2533.310 31.516 0.504 o
-12 3 6 686.871 680.182 10.919 3.724 o
-12 3 7 57.172 40.097 3.287 79.133 o
-12 3 8 80.627 96.887 4.248 45.816 o
-12 3 9 0.146 2.928 2.315 1329.230 o
-12 3 10 64.959 79.631 3.445 58.213 o
-12 3 11 1181.650 1240.140 19.127 1.578 o
-12 3 12 138.696 167.308 4.713 25.693 o
-12 3 13 619.910 685.077 10.851 4.070 o
-12 3 14 24.343 29.438 2.818 154.391 o
-12 3 15 4.159 7.678 2.542 564.281 o
-12 3 16 122.348 134.607 4.209 30.841 o
-12 3 17 3.109 4.233 1.951 896.046 o
-12 3 18 0.083 3.508 1.370 2250.550 o
-12 3 19 867.368 881.190 13.289 2.610 o
-12 3 20 1124.310 1142.570 16.213 1.756 o
-12 3 21 292.105 285.916 6.482 11.658 o
-12 3 22 697.470 673.724 13.963 3.589 o
-12 3 23 160.242 174.257 5.961 22.217 o
-12 3 24 194.829 212.797 5.380 18.141 o
-12 3 25 74.005 55.779 2.766 61.369 o
-12 3 26 202.501 204.321 7.358 17.155 o
-12 3 27 11.751 10.283 1.645 371.672 o
-12 3 28 362.780 279.772 17.704 7.778 o
-12 4 1 8.776 17.948 2.467 317.923 o
-12 4 2 119.886 134.040 4.814 30.809 o
-12 4 3 3285.270 3281.910 35.819 0.296 o
-12 4 4 742.504 881.607 13.602 2.998 o
-12 4 5 78.932 80.459 4.327 49.437 o
-12 4 6 820.181 859.598 14.661 2.754 o
-12 4 7 24.066 32.084 2.949 149.082 o
-12 4 8 189.472 200.707 5.619 18.850 o
-12 4 9 58.584 68.480 3.230 66.252 o
-12 4 10 16.638 14.787 2.255 252.129 o
-12 4 11 1539.030 1637.840 20.260 1.041 o
-12 4 12 277.049 325.704 6.287 11.539 o
-12 4 13 40.134 43.083 3.197 98.550 o
-12 4 14 40.508 27.448 2.590 115.506 o
-12 4 15 6.767 9.091 2.061 491.895 o
-12 4 16 331.035 371.587 9.963 8.995 o
-12 4 17 2460.200 2564.900 34.891 0.470 o
-12 4 18 0.340 2.164 2.122 1558.850 o
-12 4 19 122.718 145.673 4.676 29.493 o
-12 4 20 37.551 47.624 3.419 97.631 o
-12 4 21 127.845 125.568 9.158 25.600 o
-12 4 22 2763.820 2819.760 47.256 0.378 o
-12 4 23 99.339 116.732 4.617 36.936 o
-12 4 24 538.022 545.582 12.692 4.998 o
-12 4 25 302.068 287.693 7.026 11.231 o
-12 4 26 2.109 3.022 1.762 1222.380 o
-12 4 27 289.586 240.898 14.058 10.505 o
-12 4 28 79.069 55.309 3.119 57.841 o
-12 5 1 103.172 131.397 6.019 32.788 o
-12 5 2 494.236 554.934 11.517 5.399 o
-12 5 3 59.678 67.078 4.043 63.555 o
-12 5 4 587.212 611.143 12.248 4.437 o
-12 5 5 867.417 852.955 15.422 2.609 o
-12 5 6 136.659 158.557 4.500 26.649 o
-12 5 7 1266.810 1340.720 18.035 1.424 o
-12 5 8 1037.950 1146.890 16.740 1.887 o
-12 5 9 22.693 45.043 3.105 132.092 o
-12 5 10 243.521 273.965 5.933 13.759 o
-12 5 11 30.818 31.111 2.436 135.430 o
-12 5 12 49.419 63.818 3.056 76.073 o
-12 5 13 97.100 85.973 3.399 43.351 o
-12 5 14 482.454 505.220 8.512 5.941 o
-12 5 15 3169.190 3232.870 41.175 0.307 o
-12 5 16 2.086 7.081 2.183 789.407 o
-12 5 17 1626.400 1685.630 31.358 0.918 o
-12 5 18 349.346 370.726 8.615 8.830 o
-12 5 19 316.739 320.491 7.081 10.357 o
-12 5 20 14.223 17.708 2.681 248.041 o
-12 5 21 21.604 19.715 2.960 184.401 o
-12 5 22 326.988 324.420 7.389 10.004 o
-12 5 23 1578.590 1611.140 40.520 0.911 o
-12 5 24 833.726 779.675 13.525 2.863 o
-12 5 25 1370.750 1289.840 22.537 1.309 o
-12 5 26 447.029 387.433 8.811 7.054 o
-12 5 27 558.144 444.608 25.116 4.227 o
-12 5 28 195.653 147.299 6.141 20.190 o
-12 6 1 999.272 1032.000 16.450 2.068 o
-12 6 2 2987.080 3135.340 47.744 0.327 o
-12 6 3 227.660 253.666 5.431 15.057 o
-12 6 4 0.186 4.344 2.023 1361.210 o
-12 6 5 685.094 678.208 12.196 3.698 o
-12 6 6 1.261 4.507 2.361 957.373 o
-12 6 7 221.671 251.803 5.961 15.264 o
-12 6 8 126.694 117.765 4.308 31.479 o
-12 6 9 1553.530 1574.540 20.660 1.051 o
-12 6 10 352.718 376.231 7.690 8.823 o
-12 6 11 57.779 57.578 3.752 69.233 o
-12 6 12 1531.730 1539.950 23.198 1.066 o
-12 6 13 22.037 20.637 2.763 183.641 o
-12 6 14 136.499 140.682 5.161 27.433 o
-12 6 15 77.561 89.342 3.743 49.307 o
-12 6 16 881.985 865.608 15.762 2.544 o
-12 6 17 755.448 754.235 11.849 3.229 o
-12 6 18 486.508 468.880 12.607 5.794 o
-12 6 19 1589.590 1526.380 38.579 0.941 o
-12 6 20 1453.000 1443.500 50.850 0.943 o
-12 6 21 169.369 171.004 5.622 21.697 o
-12 6 22 30.825 29.083 3.592 126.394 o
-12 6 23 17.676 21.699 2.805 204.078 o
-12 6 24 36.295 32.529 2.324 120.866 o
-12 6 25 176.499 143.564 6.744 21.664 o
-12 6 26 50.222 48.373 3.804 79.673 o
-12 6 27 4.232 2.370 3.059 593.376 o
-12 7 1 3270.730 3347.150 46.013 0.287 o
-12 7 2 22.296 19.920 2.460 189.539 o
-12 7 3 3370.950 3340.000 42.447 0.280 o
-12 7 4 15.707 17.637 2.201 249.045 o
-12 7 5 131.623 131.342 4.195 29.578 o
-12 7 6 2177.680 2261.320 32.211 0.580 o
-12 7 7 624.831 675.552 11.106 4.060 o
-12 7 8 302.235 310.113 6.611 10.967 o
-12 7 9 433.727 478.394 8.708 6.639 o
-12 7 10 1140.850 1128.350 16.538 1.739 o
-12 7 11 536.159 519.007 9.806 5.290 o
-12 7 12 4.762 11.381 2.323 494.735 o
-12 7 13 38.743 35.932 3.243 106.273 o
-12 7 14 79.152 83.971 4.042 49.200 o
-12 7 15 16.609 17.813 3.138 215.067 o
-12 7 16 1329.350 1294.240 18.388 1.379 o
-12 7 17 126.013 127.178 6.517 28.709 o
-12 7 18 159.337 167.605 7.337 21.748 o
-12 7 19 925.162 912.507 69.056 1.159 o
-12 7 20 24.850 31.930 3.469 140.059 o
-12 7 21 232.048 266.529 8.546 13.694 o
-12 7 22 435.587 410.199 13.040 6.632 o
-12 7 23 0.449 -0.340 1.927 2345.270 o
-12 7 24 339.532 332.549 9.396 9.315 o
-12 7 25 55.127 43.501 3.112 80.169 o
-12 7 26 0.503 -1.111 2.936 1094.560 o
-12 7 27 447.887 295.073 11.737 7.391 o
-12 8 1 530.544 530.833 10.858 5.229 o
-12 8 2 36.457 47.899 3.016 101.611 o
-12 8 3 910.251 961.142 15.512 2.354 o
-12 8 4 611.944 601.719 11.978 4.322 o
-12 8 5 288.881 315.550 7.169 11.184 o
-12 8 6 1190.730 1142.750 21.867 1.602 o
-12 8 7 1711.460 1719.050 27.578 0.880 o
-12 8 8 1041.440 1051.420 16.813 1.965 o
-12 8 9 928.515 839.377 15.386 2.463 o
-12 8 10 1117.020 1124.540 19.319 1.748 o
-12 8 11 182.711 180.757 5.537 20.163 o
-12 8 12 217.105 213.530 6.889 16.224 o
-12 8 13 4.970 2.720 2.723 614.919 o
-12 8 14 123.842 109.628 4.616 32.480 o
-12 8 15 50.316 58.911 3.503 75.846 o
-12 8 16 20.987 20.842 3.969 163.999 o
-12 8 17 12.927 10.780 4.303 225.124 o
-12 8 18 14.288 13.219 4.290 207.989 o
-12 8 19 325.320 357.359 10.535 9.164 o
-12 8 20 33.566 39.671 3.839 107.357 o
-12 8 21 166.308 147.559 5.161 23.400 o
-12 8 22 3.477 7.303 2.425 628.642 o
-12 8 23 1098.000 1085.210 35.754 1.559 o
-12 8 24 877.603 784.852 41.555 1.927 o
-12 8 25 171.721 145.139 8.151 21.082 o
-12 8 26 1414.150 928.612 31.622 1.358 o
-12 9 1 19.312 16.926 2.229 221.910 o
-12 9 2 1176.220 1149.780 17.634 1.661 o
-12 9 3 10.922 17.987 2.297 295.696 o
-12 9 4 137.126 147.939 5.021 26.951 o
-12 9 5 1898.580 1907.650 27.214 0.749 o
-12 9 6 21.705 21.089 2.552 187.963 o
-12 9 7 361.224 346.801 8.775 8.811 o
-12 9 8 304.532 298.030 7.325 10.957 o
-12 9 9 362.206 377.143 8.403 8.546 o
-12 9 10 8103.410 7881.830 140.637 0.053 o
-12 9 11 1818.520 1792.970 37.476 0.769 o
-12 9 12 40.099 42.151 3.679 96.214 o
-12 9 13 220.586 258.440 8.026 14.532 o
-12 9 14 45.050 45.532 3.526 88.351 o
-12 9 15 5169.240 5002.980 136.264 0.110 o
-12 9 16 2342.590 2418.060 80.147 0.406 o
-12 9 17 21.726 38.643 4.954 119.092 o
-12 9 18 1171.400 1302.210 33.231 1.395 o
-12 9 19 486.741 502.291 17.942 5.167 o
-12 9 20 28.678 29.680 3.230 135.295 o
-12 9 21 738.830 748.649 20.927 3.018 o
-12 9 22 420.052 423.466 14.398 6.581 o
-12 9 23 872.791 865.951 31.216 2.173 o
-12 9 24 1507.560 1225.750 34.723 1.120 o
-12 9 25 763.567 496.906 18.008 3.531 o
-12 10 1 808.940 797.199 14.370 2.897 o
-12 10 2 40.926 59.332 4.144 81.861 o
-12 10 3 6371.760 6365.340 99.788 0.084 o
-12 10 4 2219.530 2281.720 39.146 0.550 o
-12 10 5 70.479 70.928 4.028 56.195 o
-12 10 6 324.575 316.734 9.672 9.781 o
-12 10 7 337.211 332.427 8.696 9.477 o
-12 10 8 1285.840 1329.610 29.005 1.315 o
-12 10 9 3353.390 3337.790 65.125 0.264 o
-12 10 10 1288.470 1225.520 26.889 1.386 o
-12 10 11 4383.180 4287.370 83.782 0.164 o
-12 10 12 175.461 178.375 5.987 20.650 o
-12 10 13 276.882 264.672 10.479 11.570 o
-12 10 14 347.486 329.850 9.897 9.096 o
-12 10 15 40.968 53.929 5.672 75.387 o
-12 10 16 4423.270 4236.260 136.199 0.138 o
-12 10 17 752.531 728.226 22.145 2.960 o
-12 10 18 466.433 468.543 35.058 3.687 o
-12 10 19 1519.830 1535.850 38.577 0.979 o
-12 10 20 668.362 680.977 19.144 3.494 o
-12 10 21 28.413 29.007 3.694 131.335 o
-12 10 22 12.674 20.917 4.067 201.895 o
-12 10 23 19.955 22.319 3.123 182.891 o
-12 11 1 68.344 61.969 3.829 60.383 o
-12 11 2 90.051 105.574 5.647 39.175 o
-12 11 3 1.437 14.419 3.774 380.859 o
-12 11 4 1225.320 1232.600 26.649 1.453 o
-12 11 5 349.947 347.311 13.835 8.205 o
-12 11 6 561.633 546.002 11.633 4.876 o
-12 11 7 3200.170 3029.560 59.169 0.298 o
-12 11 8 87.309 81.807 4.947 44.823 o
-12 11 9 111.854 87.647 4.310 37.805 o
-12 11 10 52.995 39.287 3.270 84.005 o
-12 11 11 3175.960 2914.270 72.730 0.291 o
-12 11 12 2105.420 1939.530 50.142 0.596 o
-12 11 13 58.037 54.573 4.177 68.613 o
-12 11 14 370.094 420.654 13.969 7.304 o
-12 11 15 47.193 52.322 8.414 55.907 o
-12 11 16 15.237 14.542 2.507 259.084 o
-12 11 17 260.556 219.706 12.575 12.128 o
-12 11 18 2.846 5.883 2.138 786.831 o
-12 11 19 91.003 90.090 8.556 35.213 o
-12 11 20 186.539 188.298 7.207 18.799 o
-12 11 21 29.705 35.534 3.005 127.337 o
-12 12 1 67.056 72.490 4.878 55.243 o
-12 12 2 140.221 148.445 7.950 24.131 o
-12 12 3 974.517 966.027 21.333 2.104 o
-12 12 4 317.052 323.809 9.694 9.871 o
-12 12 5 2114.210 2152.290 41.645 0.590 o
-12 12 6 44.517 47.059 2.724 92.042 o
-12 12 7 7.082 9.634 2.027 475.298 o
-12 12 8 631.214 566.439 18.502 3.979 o
-12 12 9 202.950 197.560 11.485 15.318 o
-12 12 10 140.308 129.187 9.182 23.966 o
-12 12 11 147.359 146.132 8.855 22.702 o
-12 12 12 394.324 416.770 19.161 6.263 o
-12 12 13 2031.600 2038.170 94.810 0.436 o
-12 12 14 178.072 155.801 7.360 20.615 o
-12 12 15 127.906 112.904 7.156 28.788 o
-12 12 16 1.121 5.471 2.396 901.454 o
-12 12 17 22.969 21.580 3.400 165.636 o
-12 12 18 522.817 527.281 14.712 5.052 o
-12 12 19 282.107 259.314 13.154 10.731 o
-12 12 20 19.152 12.325 1.799 251.627 o
-12 13 1 73.870 71.050 4.031 54.449 o
-12 13 2 155.800 142.614 4.685 25.128 o
-12 13 3 773.668 758.794 19.082 2.947 o
-12 13 4 8.697 12.607 2.099 387.341 o
-12 13 5 498.515 549.425 18.271 4.870 o
-12 13 6 1036.570 1110.440 42.548 1.493 o
-12 13 7 3.838 3.236 2.116 823.331 o
-12 13 8 113.350 133.072 5.661 31.193 o
-12 13 9 153.108 140.114 5.690 24.958 o
-12 13 10 26.577 30.507 3.319 139.009 o
-12 13 11 5042.390 5025.020 209.643 0.088 o
-12 13 12 442.793 441.928 13.953 6.264 o
-12 13 13 41.005 39.314 2.710 102.990 o
-12 13 14 231.697 232.414 8.111 14.590 o
-12 13 15 0.121 1.295 2.030 1955.400 o
-12 13 16 564.256 483.185 36.575 3.190 o
-12 13 17 839.241 662.109 23.460 2.746 o
-12 13 18 1343.420 996.602 33.791 1.369 o
-12 14 1 2.323 6.370 2.468 725.007 o
-12 14 2 1367.460 1324.310 30.118 1.233 o
-12 14 3 552.018 575.271 11.429 4.849 o
-12 14 4 2837.790 2932.670 67.288 0.333 o
-12 14 5 368.131 374.344 15.586 7.406 o
-12 14 6 278.307 256.297 12.144 11.175 o
-12 14 7 142.534 124.675 6.642 26.459 o
-12 14 8 71.389 83.941 4.832 50.725 o
-12 14 9 2697.980 2945.580 64.726 0.353 o
-12 14 10 978.727 1043.990 41.955 1.607 o
-12 14 11 490.973 533.125 23.220 4.532 o
-12 14 12 2566.900 2239.210 133.283 0.271 o
-12 14 13 115.607 101.484 4.396 35.210 o
-12 14 14 3.003 2.810 2.412 836.242 o
-12 14 15 36.770 32.721 3.008 114.713 o
-12 15 1 60.358 71.617 6.107 54.770 o
-12 15 2 456.327 461.667 10.207 6.351 o
-12 15 3 106.066 90.449 3.435 39.960 o
-12 15 4 7.313 8.642 1.866 498.867 o
-12 15 5 1179.950 1141.980 38.994 1.388 o
-12 15 6 53.628 36.992 3.060 85.521 o
-12 15 7 250.825 227.632 10.482 13.076 o
-12 15 8 57.440 44.406 2.746 78.729 o
-12 15 9 36.386 48.403 4.112 94.049 o
-12 15 10 260.266 253.737 10.379 12.309 o
-12 15 11 10.921 7.948 1.959 398.253 o
-11 -7 3 130.281 108.911 7.316 28.546 o
-11 -7 4 1.493 4.779 1.441 1324.120 o
-11 -7 5 17.788 15.632 1.790 249.143 o
-11 -7 6 112.347 101.683 5.186 34.987 o
-11 -7 7 65.710 63.752 4.160 60.474 o
-11 -7 8 58.118 56.138 4.699 65.942 o
-11 -7 9 47.089 37.150 4.101 87.635 o
-11 -7 10 65.731 63.562 6.069 54.254 o
-11 -7 11 128.039 108.103 7.427 28.808 o
-11 -6 1 1.593 3.157 2.181 1092.560 o
-11 -6 2 32.402 38.564 3.116 116.811 o
-11 -6 3 349.490 374.205 9.875 8.620 o
-11 -6 4 137.742 144.506 5.665 26.616 o
-11 -6 5 1113.890 1152.140 27.661 1.624 o
-11 -6 6 41.737 47.882 4.843 82.910 o
-11 -6 7 31.498 38.694 4.655 104.157 o
-11 -6 8 1760.220 1898.220 38.284 0.768 o
-11 -6 9 141.191 168.957 9.226 21.885 o
-11 -6 10 174.169 168.117 10.844 18.134 o
-11 -6 11 16.313 16.924 5.617 150.130 o
-11 -6 12 110.892 131.348 5.398 32.074 o
-11 -6 13 827.956 863.158 18.842 2.627 o
-11 -6 14 62.583 60.053 7.059 52.888 o
-11 -5 1 1351.520 1521.650 39.196 1.087 o
-11 -5 2 212.784 232.059 12.156 13.798 o
-11 -5 3 284.518 287.679 11.950 10.632 o
-11 -5 4 0.909 2.947 3.418 675.740 o
-11 -5 5 104.586 106.081 5.362 35.989 o
-11 -5 6 416.645 458.430 11.595 6.723 o
-11 -5 7 325.140 337.639 7.452 9.879 o
-11 -5 8 84.124 81.172 3.769 48.271 o
-11 -5 9 1238.460 1340.450 22.352 1.421 o
-11 -5 10 255.016 251.956 7.502 13.361 o
-11 -5 11 72.421 82.286 4.447 51.549 o
-11 -5 12 12.665 10.082 2.632 310.461 o
-11 -5 13 57.126 48.566 3.670 73.737 o
-11 -5 14 1277.080 1308.580 26.159 1.362 o
-11 -5 15 216.938 214.294 7.683 15.921 o
-11 -5 16 707.404 746.647 29.913 2.748 o
-11 -4 1 69.778 61.668 4.384 58.088 o
-11 -4 2 324.206 351.245 8.692 9.558 o
-11 -4 3 74.334 80.972 3.765 52.464 o
-11 -4 4 84.900 88.194 3.930 46.382 o
-11 -4 5 113.805 116.701 5.396 32.907 o
-11 -4 6 61.260 58.151 3.383 67.606 o
-11 -4 7 2053.470 2090.590 28.168 0.654 o
-11 -4 8 211.034 231.969 5.816 16.402 o
-11 -4 9 299.930 316.599 7.358 10.819 o
-11 -4 10 6.889 6.573 2.939 435.234 o
-11 -4 11 64.153 72.980 3.482 60.505 o
-11 -4 12 64.514 68.619 3.381 61.868 o
-11 -4 13 2354.890 2383.010 35.710 0.512 o
-11 -4 14 8.838 8.306 2.660 391.891 o
-11 -4 15 266.030 272.599 7.039 12.662 o
-11 -4 16 96.081 96.178 4.610 40.458 o
-11 -4 17 5.083 9.397 2.363 514.742 o
-11 -4 18 601.349 601.987 17.543 4.100 o
-11 -4 19 81.975 72.304 5.192 47.939 o
-11 -4 20 839.266 807.991 30.650 2.319 o
-11 -4 21 712.096 673.212 26.130 3.017 o
-11 -3 1 281.980 286.181 7.029 11.880 o
-11 -3 2 528.547 527.202 9.681 5.328 o
-11 -3 3 150.325 146.502 4.555 25.634 o
-11 -3 4 665.053 657.348 11.743 3.867 o
-11 -3 5 172.895 181.921 5.607 20.904 o
-11 -3 6 32.181 31.837 2.818 127.522 o
-11 -3 7 196.666 195.986 4.800 18.796 o
-11 -3 8 22.111 27.654 2.539 170.553 o
-11 -3 9 4.549 5.081 2.249 664.505 o
-11 -3 10 37.676 43.275 2.869 104.297 o
-11 -3 11 319.505 363.399 7.545 9.695 o
-11 -3 12 259.071 254.257 5.622 13.588 o
-11 -3 13 210.371 213.094 5.109 17.213 o
-11 -3 14 0.690 1.771 2.145 1485.010 o
-11 -3 15 100.515 99.572 3.248 40.434 o
-11 -3 16 2.179 2.517 1.916 1179.920 o
-11 -3 17 25.623 25.056 2.470 162.314 o
-11 -3 18 67.290 77.453 3.917 56.429 o
-11 -3 19 441.168 461.949 9.523 6.586 o
-11 -3 20 1297.800 1272.630 23.229 1.386 o
-11 -3 21 66.897 64.762 4.353 58.921 o
-11 -3 22 89.277 88.914 4.633 43.570 o
-11 -3 23 463.494 455.559 14.078 5.959 o
-11 -3 24 179.801 204.423 11.225 16.476 o
-11 -3 25 487.466 493.963 19.840 5.012 o
-11 -3 26 70.270 64.500 5.223 54.602 o
-11 -2 1 1059.290 1122.440 14.041 1.901 o
-11 -2 2 76.038 69.758 2.805 56.185 o
-11 -2 3 22.685 30.884 2.131 166.530 o
-11 -2 4 2375.360 2484.040 25.277 0.511 o
-11 -2 5 24.600 35.936 2.308 148.167 o
-11 -2 6 851.753 926.607 11.785 2.614 o
-11 -2 7 1301.570 1349.900 15.868 1.395 o
-11 -2 8 562.568 619.605 9.367 4.704 o
-11 -2 9 2831.600 3000.020 39.389 0.364 o
-11 -2 10 86.965 90.045 3.243 46.328 o
-11 -2 11 7.709 7.004 2.137 487.952 o
-11 -2 12 566.524 567.423 9.986 4.841 o
-11 -2 13 532.171 570.021 15.209 4.786 o
-11 -2 14 639.805 738.318 10.084 3.840 o
-11 -2 15 253.856 275.494 5.548 13.382 o
-11 -2 16 1021.200 1044.270 13.824 2.046 o
-11 -2 17 34.815 30.424 2.427 126.022 o
-11 -2 18 1062.080 1093.070 14.216 1.920 o
-11 -2 19 700.666 726.927 12.482 3.502 o
-11 -2 20 1189.280 1161.190 17.953 1.632 o
-11 -2 21 1703.590 1757.430 23.564 0.890 o
-11 -2 22 1.327 2.170 2.383 1114.470 o
-11 -2 23 105.348 117.091 4.224 35.942 o
-11 -2 24 14.180 12.417 2.242 291.847 o
-11 -2 25 109.669 113.867 6.078 33.150 o
-11 -2 26 8.229 8.420 2.363 429.887 o
-11 -2 27 9.051 3.630 2.436 468.809 o
-11 -2 28 1.792 1.514 2.223 1183.800 o
-11 -1 1 539.982 558.019 8.813 5.141 o
-11 -1 2 2526.800 2771.400 30.428 0.442 o
-11 -1 3 242.817 263.761 4.894 14.226 o
-11 -1 4 56.575 62.815 2.680 71.442 o
-11 -1 5 432.427 483.129 6.981 6.744 o
-11 -1 6 775.668 780.308 9.853 3.143 o
-11 -1 7 2811.060 2994.580 30.007 0.376 o
-11 -1 8 21.224 28.633 2.590 171.549 o
-11 -1 9 116.258 143.204 4.527 30.894 o
-11 -1 10 1072.620 1157.790 14.050 1.848 o
-11 -1 11 19.142 26.373 2.401 190.166 o
-11 -1 12 28.020 34.712 2.619 136.553 o
-11 -1 13 82.626 92.868 3.665 46.785 o
-11 -1 14 1.273 3.733 2.445 970.698 o
-11 -1 15 1386.480 1468.350 18.376 1.237 o
-11 -1 16 13.046 20.780 3.036 233.521 o
-11 -1 17 2098.470 2129.190 28.476 0.632 o
-11 -1 18 4.426 6.391 2.270 628.832 o
-11 -1 19 65.470 74.891 3.312 59.575 o
-11 -1 20 476.301 497.612 9.653 5.974 o
-11 -1 21 115.949 106.744 4.137 34.830 o
-11 -1 22 193.304 185.127 5.751 19.085 o
-11 -1 23 1.930 1.869 2.472 995.811 o
-11 -1 24 2.275 4.598 2.287 860.824 o
-11 -1 25 142.659 144.453 4.528 26.772 o
-11 -1 26 13.660 13.725 2.894 265.025 o
-11 -1 27 24.462 25.645 3.544 150.113 o
-11 -1 28 20.800 19.147 4.049 166.478 o
-11 -1 29 6.564 6.302 2.352 518.624 o
-11 0 1 168.764 170.905 4.096 22.466 o
-11 0 2 9.130 7.564 2.044 443.079 o
-11 0 3 553.497 572.875 8.183 4.998 o
-11 0 4 849.799 913.904 11.455 2.644 o
-11 0 5 87.256 71.609 2.882 50.344 o
-11 0 6 14.819 15.787 2.365 261.628 o
-11 0 7 110.873 90.037 3.427 38.727 o
-11 0 8 2473.340 2379.620 28.337 0.497 o
-11 0 9 35.067 24.348 2.446 132.975 o
-11 0 10 628.925 626.038 9.684 4.231 o
-11 0 11 114.804 104.952 3.356 36.000 o
-11 0 12 176.859 189.559 4.373 20.756 o
-11 0 13 2137.300 2115.780 31.367 0.615 o
-11 0 14 5.332 7.964 2.173 558.198 o
-11 0 15 215.863 222.114 6.147 16.305 o
-11 0 16 1977.630 1892.690 24.392 0.727 o
-11 0 17 1.043 3.300 2.349 1084.670 o
-11 0 18 0.853 2.654 2.331 1189.570 o
-11 0 19 122.376 121.537 4.976 31.316 o
-11 0 20 9.186 9.207 2.817 363.466 o
-11 0 21 1072.510 1014.710 16.355 1.948 o
-11 0 22 27.834 30.006 3.069 139.091 o
-11 0 23 61.011 68.808 4.967 59.159 o
-11 0 24 42.078 32.512 3.418 102.316 o
-11 0 25 248.031 267.620 7.503 13.327 o
-11 0 26 740.064 738.818 17.063 3.168 o
-11 0 27 162.708 182.199 5.511 21.853 o
-11 0 28 13.678 11.746 2.446 294.326 o
-11 0 29 29.307 28.439 2.990 137.997 o
-11 0 30 246.689 217.514 9.292 13.855 o
-11 1 1 3676.420 3499.670 36.661 0.250 o
-11 1 2 281.645 301.115 5.523 11.907 o
-11 1 3 11.016 7.266 1.973 403.087 o
-11 1 4 1870.620 1734.500 19.132 0.823 o
-11 1 5 82.204 49.141 2.643 58.723 o
-11 1 6 2251.440 2266.270 23.953 0.573 o
-11 1 7 13.751 16.906 2.637 257.698 o
-11 1 8 446.715 433.602 10.273 6.629 o
-11 1 9 977.021 920.080 13.444 2.276 o
-11 1 10 0.191 0.891 2.314 1630.760 o
-11 1 11 1007.570 1152.960 15.199 1.953 o
-11 1 12 339.400 347.017 6.306 9.580 o
-11 1 13 55.530 77.151 2.693 66.710 o
-11 1 14 3830.440 3962.620 53.170 0.214 o
-11 1 15 370.913 393.739 5.900 8.479 o
-11 1 16 133.171 116.032 4.172 30.607 o
-11 1 17 1388.950 1463.960 21.205 1.221 o
-11 1 18 545.938 576.162 8.938 5.013 o
-11 1 19 727.521 749.982 13.378 3.311 o
-11 1 20 428.895 424.611 8.173 7.100 o
-11 1 21 317.313 331.373 6.883 10.231 o
-11 1 22 565.140 557.034 11.475 4.817 o
-11 1 23 4.566 2.655 2.634 659.098 o
-11 1 24 36.305 34.118 3.147 113.161 o
-11 1 25 762.109 758.620 15.455 3.099 o
-11 1 26 447.730 456.234 12.087 6.317 o
-11 1 27 596.344 591.736 12.236 4.442 o
-11 1 28 126.036 117.334 4.359 31.594 o
-11 1 29 1126.160 1129.650 28.084 1.617 o
-11 1 30 139.900 117.267 6.493 27.446 o
-11 2 1 29.686 42.551 2.719 121.594 o
-11 2 2 1317.130 1281.880 15.993 1.414 o
-11 2 3 904.513 890.002 11.781 2.519 o
-11 2 4 59.342 51.129 2.743 73.865 o
-11 2 5 1050.140 987.868 13.479 2.048 o
-11 2 6 1638.560 1630.650 20.032 0.978 o
-11 2 7 3856.950 4184.300 49.541 0.208 o
-11 2 8 538.841 590.313 14.034 4.742 o
-11 2 9 0.468 7.768 2.390 849.275 o
-11 2 10 937.050 977.057 25.557 2.082 o
-11 2 11 0.602 5.868 2.292 984.410 o
-11 2 12 3237.230 3182.440 50.530 0.295 o
-11 2 13 2232.970 2230.480 32.036 0.569 o
-11 2 14 5127.260 5230.140 68.730 0.127 o
-11 2 15 916.742 933.585 14.348 2.391 o
-11 2 16 366.967 353.287 7.739 8.762 o
-11 2 17 187.349 218.706 4.685 18.687 o
-11 2 18 932.639 876.184 15.033 2.412 o
-11 2 19 155.248 154.532 3.674 25.000 o
-11 2 20 469.107 442.666 7.917 6.479 o
-11 2 21 0.330 2.430 2.254 1397.560 o
-11 2 22 2067.740 2036.230 29.095 0.656 o
-11 2 23 5.358 6.111 2.779 511.510 o
-11 2 24 0.607 3.060 2.363 1177.700 o
-11 2 25 328.472 363.860 8.194 9.396 o
-11 2 26 1176.180 1186.740 19.390 1.618 o
-11 2 27 924.456 935.125 20.297 2.262 o
-11 2 28 95.381 96.382 5.107 39.863 o
-11 2 29 312.829 350.891 15.408 8.504 o
-11 2 30 4.683 4.373 2.664 597.941 o
-11 3 1 103.695 84.814 3.836 40.964 o
-11 3 2 1121.610 1216.060 18.332 1.684 o
-11 3 3 4163.490 4142.600 51.201 0.191 o
-11 3 4 455.268 537.026 9.130 6.022 o
-11 3 5 990.109 1117.420 13.815 2.035 o
-11 3 6 1652.940 1759.480 20.574 0.928 o
-11 3 7 1030.050 952.881 13.422 2.125 o
-11 3 8 2783.120 2834.880 35.885 0.387 o
-11 3 9 16.514 44.468 3.057 152.280 o
-11 3 10 4024.580 4341.640 52.517 0.192 o
-11 3 11 1033.630 1141.920 17.413 1.891 o
-11 3 12 431.537 409.112 7.605 7.218 o
-11 3 13 1996.930 1910.460 20.493 0.725 o
-11 3 14 3.945 11.463 2.247 533.136 o
-11 3 15 1498.940 1477.450 21.964 1.120 o
-11 3 16 1675.820 1781.900 22.917 0.901 o
-11 3 17 225.426 218.339 4.948 16.218 o
-11 3 18 222.784 223.388 4.960 16.222 o
-11 3 19 5.140 6.796 2.181 594.064 o
-11 3 20 28.867 30.430 2.700 139.484 o
-11 3 21 349.492 362.856 8.062 8.978 o
-11 3 22 1685.620 1693.920 34.883 0.866 o
-11 3 23 169.775 205.121 6.621 19.711 o
-11 3 24 396.053 389.454 7.466 7.933 o
-11 3 25 304.070 293.920 6.472 11.171 o
-11 3 26 16.103 19.915 2.595 225.963 o
-11 3 27 211.876 213.607 5.432 17.008 o
-11 3 28 17.857 13.013 2.528 241.386 o
-11 3 29 8.842 10.362 4.221 266.693 o
-11 3 30 70.379 58.360 4.417 58.574 o
-11 4 1 1731.220 1539.470 23.700 0.935 o
-11 4 2 49.489 56.033 3.746 76.939 o
-11 4 3 2197.690 2196.020 30.590 0.587 o
-11 4 4 269.405 265.409 7.312 12.608 o
-11 4 5 660.020 650.139 10.996 3.939 o
-11 4 6 1484.460 1533.590 20.374 1.118 o
-11 4 7 1543.330 1478.890 19.797 1.097 o
-11 4 8 927.487 801.269 12.016 2.574 o
-11 4 9 3811.070 3915.540 45.002 0.221 o
-11 4 10 21.852 22.449 2.602 182.881 o
-11 4 11 839.275 968.393 13.189 2.568 o
-11 4 12 3158.680 3255.470 36.082 0.310 o
-11 4 13 1175.810 1265.910 16.229 1.594 o
-11 4 14 4520.650 4621.410 55.632 0.161 o
-11 4 15 2.223 5.036 2.213 867.169 o
-11 4 16 353.164 355.199 8.024 8.986 o
-11 4 17 575.085 581.302 10.069 4.723 o
-11 4 18 18.132 18.554 4.249 174.501 o
-11 4 19 91.039 80.827 4.361 44.793 o
-11 4 20 0.539 5.298 2.823 811.923 o
-11 4 21 872.177 854.742 18.759 2.520 o
-11 4 22 625.138 653.231 12.936 4.051 o
-11 4 23 7.535 10.849 2.833 378.837 o
-11 4 24 923.642 942.431 17.374 2.312 o
-11 4 25 16.150 16.714 2.084 252.298 o
-11 4 26 387.525 390.785 8.258 7.989 o
-11 4 27 6.877 6.053 2.048 547.970 o
-11 4 28 348.225 317.799 10.457 9.113 o
-11 4 29 2018.680 1806.090 60.006 0.600 o
-11 5 1 7.694 7.771 2.627 429.095 o
-11 5 2 145.498 135.950 5.234 26.483 o
-11 5 3 129.201 136.832 5.983 28.055 o
-11 5 4 253.345 288.156 6.001 13.064 o
-11 5 5 290.564 355.223 6.138 10.729 o
-11 5 6 103.700 141.528 4.408 33.497 o
-11 5 7 760.928 837.570 13.253 3.019 o
-11 5 8 876.726 875.641 12.862 2.598 o
-11 5 9 638.366 762.790 10.963 3.758 o
-11 5 10 4432.670 4535.980 48.722 0.169 o
-11 5 11 1709.860 1770.200 21.243 0.891 o
-11 5 12 285.192 332.463 7.248 11.031 o
-11 5 13 164.177 174.892 5.551 22.038 o
-11 5 14 915.132 990.200 16.419 2.293 o
-11 5 15 2534.370 2726.960 37.045 0.437 o
-11 5 16 301.219 306.402 7.157 10.960 o
-11 5 17 183.290 205.293 6.799 18.624 o
-11 5 18 1398.260 1430.470 17.637 1.248 o
-11 5 19 690.551 671.149 23.823 3.205 o
-11 5 20 2643.500 2769.500 68.182 0.365 o
-11 5 21 4.753 8.861 2.790 482.677 o
-11 5 22 1733.310 1721.600 27.734 0.867 o
-11 5 23 2206.380 2233.280 59.621 0.504 o
-11 5 24 17.322 13.712 3.084 226.257 o
-11 5 25 181.955 180.188 5.695 20.177 o
-11 5 26 295.488 292.882 6.515 11.438 o
-11 5 27 380.906 366.822 11.213 7.942 o
-11 5 28 117.109 123.572 6.017 30.973 o
-11 5 29 180.005 164.440 7.441 20.059 o
-11 5 30 211.188 176.109 8.354 17.034 o
-11 6 1 190.204 191.537 6.970 18.542 o
-11 6 2 3359.400 3130.310 41.580 0.292 o
-11 6 3 19.069 22.190 2.342 203.667 o
-11 6 4 1844.140 1892.020 27.069 0.776 o
-11 6 5 2957.950 3102.810 40.181 0.340 o
-11 6 6 99.725 110.535 4.402 37.864 o
-11 6 7 22.280 21.168 2.948 177.798 o
-11 6 8 1728.010 1785.610 22.528 0.873 o
-11 6 9 4.712 5.427 2.346 626.311 o
-11 6 10 68.720 107.313 3.898 48.969 o
-11 6 11 1315.900 1357.670 19.003 1.355 o
-11 6 12 56.740 55.696 3.394 72.058 o
-11 6 13 172.337 210.476 5.752 19.712 o
-11 6 14 18.234 27.939 2.465 189.742 o
-11 6 15 147.589 137.451 5.120 26.193 o
-11 6 16 1075.810 1105.070 29.014 1.687 o
-11 6 17 288.104 294.734 12.493 10.308 o
-11 6 18 38.471 51.306 3.707 91.985 o
-11 6 19 88.411 101.229 4.176 42.624 o
-11 6 20 317.114 307.363 10.298 9.949 o
-11 6 21 23.189 21.707 2.864 173.849 o
-11 6 22 127.476 125.253 5.062 30.050 o
-11 6 23 1128.000 1131.370 24.781 1.659 o
-11 6 24 150.056 143.190 5.036 25.577 o
-11 6 25 110.258 91.092 4.993 36.908 o
-11 6 26 136.596 134.250 9.842 23.401 o
-11 6 27 39.704 42.805 5.462 83.505 o
-11 6 28 215.564 207.655 8.205 15.965 o
-11 6 29 369.185 317.701 25.414 5.974 o
-11 7 1 521.311 560.132 10.792 5.187 o
-11 7 2 492.740 501.438 8.477 5.856 o
-11 7 3 215.322 215.433 4.972 16.880 o
-11 7 4 717.206 735.279 10.998 3.450 o
-11 7 5 126.173 126.934 3.855 31.111 o
-11 7 6 20.877 22.028 2.439 191.883 o
-11 7 7 3283.860 3197.360 36.974 0.299 o
-11 7 8 1998.340 1996.130 24.539 0.699 o
-11 7 9 782.718 736.140 11.771 3.160 o
-11 7 10 6389.480 6464.950 75.767 0.086 o
-11 7 11 141.141 137.971 4.350 27.541 o
-11 7 12 1197.690 1247.510 18.843 1.555 o
-11 7 13 635.428 678.030 13.286 3.912 o
-11 7 14 321.857 345.038 9.438 9.560 o
-11 7 15 561.251 577.095 11.660 4.762 o
-11 7 16 763.314 753.188 18.289 3.017 o
-11 7 17 49.818 41.655 4.019 82.481 o
-11 7 18 15.124 16.858 2.613 245.927 o
-11 7 19 2217.740 2168.600 42.716 0.557 o
-11 7 20 0.317 -0.131 2.712 1310.070 o
-11 7 21 133.935 131.785 5.694 27.994 o
-11 7 22 132.826 146.135 6.339 26.596 o
-11 7 23 224.480 202.150 10.119 14.846 o
-11 7 24 599.955 526.628 18.178 4.286 o
-11 7 25 71.073 62.882 4.218 57.516 o
-11 7 26 29.959 26.498 3.007 138.718 o
-11 7 27 26.650 17.004 2.987 167.009 o
-11 7 28 162.404 135.816 5.480 24.275 o
-11 7 29 34.127 19.085 1.984 147.498 o
-11 8 1 615.545 606.509 10.162 4.358 o
-11 8 2 57.837 64.767 2.971 68.883 o
-11 8 3 20.948 20.622 2.340 197.174 o
-11 8 4 881.272 860.608 12.537 2.612 o
-11 8 5 1548.640 1512.430 22.640 1.067 o
-11 8 6 3035.830 2974.600 43.107 0.335 o
-11 8 7 270.743 256.243 6.030 13.003 o
-11 8 8 1558.050 1602.490 23.323 1.026 o
-11 8 9 214.827 201.143 5.122 17.304 o
-11 8 10 4142.230 4168.400 58.755 0.188 o
-11 8 11 995.561 1045.510 19.985 2.010 o
-11 8 12 2539.740 2519.920 41.196 0.449 o
-11 8 13 496.281 535.263 11.516 5.469 o
-11 8 14 120.195 123.876 4.449 31.984 o
-11 8 15 290.242 297.811 8.421 11.166 o
-11 8 16 51.866 54.831 3.693 75.529 o
-11 8 17 58.140 44.642 8.438 52.494 o
-11 8 18 469.896 495.466 14.904 5.624 o
-11 8 19 564.427 579.395 13.543 4.629 o
-11 8 20 704.592 684.312 14.919 3.499 o
-11 8 21 6.094 5.760 2.454 534.913 o
-11 8 22 304.121 316.458 10.533 10.105 o
-11 8 23 0.931 1.807 3.007 874.306 o
-11 8 24 55.233 56.078 4.008 70.864 o
-11 8 25 513.264 484.750 11.800 5.525 o
-11 8 26 206.269 166.105 7.536 18.047 o
-11 8 27 1.927 2.144 2.016 1214.590 o
-11 8 28 298.407 232.622 9.881 11.561 o
-11 9 1 179.767 183.844 5.568 20.264 o
-11 9 2 804.121 820.224 13.900 2.885 o
-11 9 3 1226.940 1235.540 22.046 1.497 o
-11 9 4 104.394 96.512 3.631 39.375 o
-11 9 5 985.506 1010.980 16.133 2.121 o
-11 9 6 3.760 8.689 2.172 618.352 o
-11 9 7 17.404 19.143 2.529 220.860 o
-11 9 8 134.763 145.115 5.406 27.179 o
-11 9 9 903.298 848.831 17.870 2.466 o
-11 9 10 571.646 556.058 15.421 4.548 o
-11 9 11 225.325 259.929 9.490 13.792 o
-11 9 12 3215.400 3125.550 54.354 0.296 o
-11 9 13 7.162 13.399 2.988 349.857 o
-11 9 14 305.988 285.334 8.931 10.792 o
-11 9 15 421.087 408.307 12.245 6.917 o
-11 9 16 900.490 922.654 63.203 1.284 o
-11 9 17 580.168 582.549 23.847 3.857 o
-11 9 18 70.341 73.752 5.951 50.304 o
-11 9 19 141.262 142.834 5.714 26.229 o
-11 9 20 19.627 16.244 2.849 207.902 o
-11 9 21 60.543 74.832 5.120 57.251 o
-11 9 22 44.293 40.046 3.385 93.648 o
-11 9 23 1187.190 1264.560 38.604 1.328 o
-11 9 24 986.168 952.929 21.948 2.083 o
-11 9 25 223.625 197.319 6.987 16.277 o
-11 9 26 393.946 340.047 14.465 7.464 o
-11 9 27 59.203 44.348 3.670 73.768 o
-11 10 1 391.200 417.026 10.028 7.529 o
-11 10 2 2.593 5.284 2.178 827.297 o
-11 10 3 2709.810 2804.300 41.796 0.394 o
-11 10 4 124.653 120.672 10.067 25.159 o
-11 10 5 0.276 1.438 3.947 601.423 o
-11 10 6 61.475 70.972 6.446 53.184 o
-11 10 7 676.039 615.588 24.828 3.313 o
-11 10 8 815.741 813.543 16.630 2.793 o
-11 10 9 2119.120 2097.090 42.759 0.593 o
-11 10 10 373.780 394.582 13.979 7.436 o
-11 10 11 1044.240 1066.220 31.236 1.720 o
-11 10 12 310.569 323.130 9.850 10.005 o
-11 10 13 67.835 71.383 6.819 49.124 o
-11 10 14 1494.630 1448.800 40.902 1.002 o
-11 10 15 188.851 194.320 8.847 17.593 o
-11 10 16 3064.520 3235.050 145.943 0.198 o
-11 10 17 669.708 724.816 15.134 3.557 o
-11 10 18 150.136 153.787 5.257 24.791 o
-11 10 19 28.153 32.816 4.249 120.581 o
-11 10 20 34.997 41.035 3.264 108.231 o
-11 10 21 385.751 422.046 18.407 6.439 o
-11 10 22 1996.080 2060.170 54.260 0.594 o
-11 10 23 376.319 409.706 18.119 6.661 o
-11 10 24 1715.070 1525.120 213.799 0.183 o
-11 10 25 65.580 61.634 4.975 58.580 o
-11 11 1 2875.080 2887.870 121.060 0.249 o
-11 11 2 897.144 929.880 24.592 2.232 o
-11 11 3 594.207 616.095 20.428 3.928 o
-11 11 4 2021.750 2138.390 75.186 0.500 o
-11 11 5 1249.420 1224.730 32.427 1.365 o
-11 11 6 380.867 353.529 11.059 8.075 o
-11 11 7 1272.650 1333.740 24.738 1.367 o
-11 11 8 329.294 304.079 9.424 9.864 o
-11 11 9 318.452 310.307 8.697 10.181 o
-11 11 10 1472.080 1415.040 67.499 0.797 o
-11 11 11 35.578 39.773 6.368 82.290 o
-11 11 12 349.206 386.473 18.063 7.151 o
-11 11 13 132.040 142.241 6.720 26.610 o
-11 11 14 117.859 81.330 46.477 4.235 o
-11 11 15 746.250 759.022 54.714 1.707 o
-11 11 16 173.978 186.877 7.641 19.541 o
-11 11 17 62.088 74.419 4.770 57.649 o
-11 11 18 16.924 24.221 3.240 191.110 o
-11 11 19 437.546 434.019 11.846 6.590 o
-11 11 20 22.065 25.498 2.774 171.895 o
-11 11 21 2.540 0.868 1.823 1338.140 o
-11 11 22 1.711 -2.369 2.344 1282.270 o
-11 11 23 4.423 5.002 3.074 523.595 o
-11 11 24 36.423 20.436 2.981 129.655 o
-11 12 1 372.101 352.905 26.151 5.671 o
-11 12 2 330.113 290.203 12.477 9.396 o
-11 12 3 117.210 115.247 10.297 26.056 o
-11 12 4 1154.730 1171.790 31.126 1.513 o
-11 12 5 813.349 803.855 20.032 2.722 o
-11 12 6 625.162 643.060 20.722 3.693 o
-11 12 7 3942.050 4164.600 77.186 0.190 o
-11 12 8 478.292 531.568 12.077 5.612 o
-11 12 9 102.861 98.512 7.648 33.636 o
-11 12 10 63.336 77.446 6.533 50.650 o
-11 12 11 403.541 386.830 53.368 2.497 o
-11 12 12 1996.840 2124.470 258.095 0.126 o
-11 12 13 3.182 6.945 7.666 149.502 o
-11 12 14 1066.570 1083.060 36.757 1.580 o
-11 12 15 1302.240 1443.610 50.717 1.030 o
-11 12 16 111.827 135.656 7.021 29.672 o
-11 12 17 175.305 205.354 8.205 18.466 o
-11 12 18 2.132 6.450 2.302 780.927 o
-11 12 19 352.276 340.828 8.780 9.051 o
-11 12 20 351.883 346.199 13.344 8.270 o
-11 12 21 164.130 166.456 29.604 7.865 o
-11 12 22 193.525 169.757 8.165 18.459 o
-11 13 1 1699.200 1747.420 34.822 0.846 o
-11 13 2 10.103 19.802 4.767 196.114 o
-11 13 3 1342.400 1449.470 28.938 1.211 o
-11 13 4 11.517 15.197 4.118 226.952 o
-11 13 5 98.544 100.133 6.731 35.929 o
-11 13 6 1443.960 1503.040 30.408 1.099 o
-11 13 7 14.968 17.633 2.941 233.736 o
-11 13 8 55.850 39.045 4.715 74.289 o
-11 13 9 788.002 754.829 21.468 2.828 o
-11 13 10 459.874 409.771 13.021 6.351 o
-11 13 11 412.387 412.404 12.914 6.926 o
-11 13 12 1699.680 1802.690 106.505 0.457 o
-11 13 13 839.024 950.726 61.768 1.349 o
-11 13 14 253.709 283.554 13.868 10.944 o
-11 13 15 371.076 376.557 16.257 7.238 o
-11 13 16 556.267 506.664 14.633 4.881 o
-11 13 17 364.082 370.433 11.981 8.080 o
-11 13 18 834.541 768.959 16.964 2.795 o
-11 13 19 17.326 19.287 4.064 181.306 o
-11 13 20 181.460 127.649 6.444 22.128 o
-11 14 1 707.099 658.070 15.242 3.535 o
-11 14 2 278.967 293.791 7.835 11.692 o
-11 14 3 2.119 3.752 3.465 574.442 o
-11 14 4 1197.150 1259.870 30.017 1.430 o
-11 14 5 64.570 73.736 3.829 59.155 o
-11 14 6 543.045 582.895 16.983 4.546 o
-11 14 7 2.599 6.543 2.275 745.363 o
-11 14 8 279.087 244.753 12.455 11.224 o
-11 14 9 1101.810 1012.510 61.701 1.146 o
-11 14 10 338.206 345.908 17.549 7.684 o
-11 14 11 1108.110 1001.290 26.518 1.755 o
-11 14 12 677.268 570.949 16.078 3.853 o
-11 14 13 9.388 9.845 4.359 255.934 o
-11 14 14 90.400 122.375 7.595 33.831 o
-11 14 15 1493.180 1501.670 35.941 1.025 o
-11 14 16 1277.510 1140.600 59.458 1.034 o
-11 14 17 1423.110 1205.860 73.836 0.798 o
-11 15 1 48.789 49.846 3.003 83.970 o
-11 15 2 963.532 1032.610 22.492 2.040 o
-11 15 3 445.759 469.089 11.239 6.343 o
-11 15 4 446.446 520.410 11.841 6.003 o
-11 15 5 631.752 644.227 21.853 3.598 o
-11 15 6 83.108 68.342 4.376 50.112 o
-11 15 7 422.263 469.239 12.257 6.521 o
-11 15 8 202.812 242.385 7.305 16.067 o
-11 15 9 6.078 7.058 2.658 484.862 o
-11 15 10 2942.360 2635.140 117.999 0.258 o
-11 15 11 629.585 584.998 33.230 3.046 o
-11 15 12 187.243 177.540 6.386 19.544 o
-11 15 13 93.564 82.347 5.279 42.109 o
-11 15 14 291.760 253.805 10.432 11.300 o
-11 16 1 153.229 144.907 4.400 25.462 o
-11 16 2 17.205 13.425 1.904 262.683 o
-11 16 3 1021.500 1092.400 21.378 1.900 o
-11 16 4 133.822 138.237 5.329 27.853 o
-11 16 5 34.069 42.243 2.901 111.465 o
-11 16 6 394.802 345.428 13.419 7.573 o
-11 16 7 62.095 29.277 2.904 81.115 o
-11 16 9 1.117 -0.731 2.002 1817.460 o
-11 16 10 124.991 104.878 5.251 32.072 o
-10 -8 1 34.622 27.863 4.436 110.409 o
-10 -8 2 134.178 137.393 8.816 24.565 o
-10 -8 3 307.481 318.464 15.173 8.956 o
-10 -8 4 956.277 927.919 90.052 0.829 o
-10 -8 5 10.211 11.315 2.469 348.092 o
-10 -8 6 2.949 6.001 2.154 768.736 o
-10 -8 7 32.635 45.879 3.246 108.254 o
-10 -8 8 622.959 632.010 12.654 4.135 o
-10 -8 9 0.164 3.897 2.216 1282.450 o
-10 -8 10 96.129 100.888 4.772 39.557 o
-10 -8 11 457.618 435.073 29.689 4.349 o
-10 -8 12 366.595 381.832 12.523 7.863 o
-10 -8 13 0.906 3.165 2.817 885.903 o
-10 -7 1 374.993 385.567 7.911 8.289 o
-10 -7 2 118.945 118.140 4.447 32.762 o
-10 -7 3 5.141 3.784 2.114 694.783 o
-10 -7 4 38.809 45.553 3.054 99.540 o
-10 -7 5 206.763 238.050 6.372 16.295 o
-10 -7 6 1111.640 1154.720 19.625 1.730 o
-10 -7 7 239.638 261.482 7.589 13.769 o
-10 -7 8 704.509 749.094 15.514 3.340 o
-10 -7 9 549.955 558.728 11.275 4.936 o
-10 -7 10 85.963 89.487 4.643 44.551 o
-10 -7 11 8.261 9.828 2.845 373.494 o
-10 -7 12 2.261 5.115 3.431 544.812 o
-10 -7 13 145.435 124.126 6.227 26.483 o
-10 -7 14 52.639 50.955 6.942 60.859 o
-10 -7 15 282.928 261.727 10.278 11.485 o
-10 -6 1 587.428 597.603 12.211 4.482 o
-10 -6 2 81.547 85.970 5.918 44.014 o
-10 -6 3 12.002 7.151 2.670 341.156 o
-10 -6 4 86.028 93.082 5.387 42.569 o
-10 -6 5 57.018 58.370 3.748 69.529 o
-10 -6 6 1285.910 1393.260 21.070 1.353 o
-10 -6 7 63.878 72.915 4.135 58.951 o
-10 -6 8 95.695 88.818 5.049 40.929 o
-10 -6 9 513.132 506.391 15.326 5.166 o
-10 -6 10 0.083 3.331 3.220 793.020 o
-10 -6 11 3.433 6.179 2.972 557.917 o
-10 -6 12 238.625 248.449 7.224 14.195 o
-10 -6 13 0.500 2.355 2.505 1174.760 o
-10 -6 14 1324.840 1318.670 27.309 1.299 o
-10 -6 15 173.367 183.943 6.526 20.317 o
-10 -6 16 81.293 78.121 4.069 49.466 o
-10 -6 17 830.832 837.666 33.604 2.211 o
-10 -5 1 296.978 323.655 7.100 10.846 o
-10 -5 2 382.302 389.312 8.868 8.024 o
-10 -5 3 2.297 3.333 2.310 921.469 o
-10 -5 4 239.976 257.814 6.969 14.002 o
-10 -5 5 239.537 239.585 6.309 14.604 o
-10 -5 6 2799.840 2800.830 37.187 0.386 o
-10 -5 7 421.222 444.833 8.384 7.050 o
-10 -5 8 277.189 308.325 6.578 11.760 o
-10 -5 9 812.077 831.227 16.801 2.773 o
-10 -5 10 721.608 743.808 14.713 3.307 o
-10 -5 11 766.476 776.678 12.371 3.131 o
-10 -5 12 2465.470 2595.400 32.681 0.469 o
-10 -5 13 811.430 847.182 13.089 2.835 o
-10 -5 14 834.525 879.788 15.530 2.662 o
-10 -5 15 1253.830 1341.940 19.687 1.425 o
-10 -5 16 1817.000 1800.180 23.605 0.821 o
-10 -5 17 69.949 75.261 3.303 56.996 o
-10 -5 18 121.537 120.385 8.815 27.138 o
-10 -5 19 309.033 324.639 10.207 9.954 o
-10 -5 20 185.160 192.243 6.863 18.924 o
-10 -5 21 203.406 192.806 9.808 16.286 o
-10 -5 22 1765.160 1761.960 42.974 0.773 o
-10 -5 23 8.246 10.487 4.747 241.934 o
-10 -4 1 236.419 249.083 5.685 14.685 o
-10 -4 2 217.780 222.526 5.442 16.398 o
-10 -4 3 353.217 360.249 7.501 8.997 o
-10 -4 4 241.660 233.448 5.955 14.740 o
-10 -4 5 220.991 240.671 6.519 15.420 o
-10 -4 6 391.361 404.408 7.742 7.861 o
-10 -4 7 922.489 927.383 13.905 2.391 o
-10 -4 8 445.728 471.339 8.653 6.539 o
-10 -4 9 1761.540 1782.240 22.305 0.857 o
-10 -4 10 42.372 51.245 2.694 92.246 o
-10 -4 11 195.648 210.432 4.756 18.372 o
-10 -4 12 236.222 222.868 5.300 15.431 o
-10 -4 13 306.582 315.742 5.669 10.897 o
-10 -4 14 47.736 40.776 2.472 93.034 o
-10 -4 15 811.884 822.117 11.113 2.913 o
-10 -4 16 150.564 156.103 3.654 25.482 o
-10 -4 17 294.651 291.098 4.916 11.732 o
-10 -4 18 12.150 11.687 1.910 339.845 o
-10 -4 19 45.424 47.876 2.648 90.660 o
-10 -4 20 133.679 121.536 4.036 30.158 o
-10 -4 21 333.701 318.128 7.030 9.967 o
-10 -4 22 52.102 61.619 3.582 72.791 o
-10 -4 23 104.519 91.452 3.943 39.667 o
-10 -4 24 61.305 71.592 4.426 59.949 o
-10 -4 25 396.730 434.434 11.229 7.186 o
-10 -4 26 211.880 228.627 7.050 16.040 o
-10 -4 27 49.722 42.379 3.677 83.969 o
-10 -3 1 257.227 254.284 4.663 13.846 o
-10 -3 2 193.791 197.819 4.731 18.962 o
-10 -3 3 87.599 75.154 2.619 49.808 o
-10 -3 4 552.382 568.703 7.541 5.048 o
-10 -3 5 2794.870 2897.860 28.550 0.387 o
-10 -3 6 2.118 4.387 1.877 1044.230 o
-10 -3 7 1725.810 1803.110 19.682 0.878 o
-10 -3 8 0.502 1.118 1.667 2369.730 o
-10 -3 9 15.538 14.201 2.032 272.587 o
-10 -3 10 638.954 661.210 9.141 4.084 o
-10 -3 11 11.405 10.765 2.093 352.276 o
-10 -3 12 99.055 101.423 3.022 40.816 o
-10 -3 13 166.044 172.757 3.582 22.843 o
-10 -3 14 845.831 872.574 10.086 2.738 o
-10 -3 15 14.050 12.292 1.817 309.609 o
-10 -3 16 581.885 597.881 7.708 4.704 o
-10 -3 17 100.790 115.645 3.115 38.317 o
-10 -3 18 30.823 37.518 2.237 128.529 o
-10 -3 19 3.669 5.261 2.098 753.274 o
-10 -3 20 86.582 82.631 3.681 47.193 o
-10 -3 21 1.634 1.041 2.328 1196.800 o
-10 -3 22 530.675 527.997 10.112 5.282 o
-10 -3 23 1175.310 1204.070 18.631 1.615 o
-10 -3 24 132.674 142.287 4.497 28.356 o
-10 -3 25 2.467 4.087 2.345 848.319 o
-10 -3 26 338.393 342.816 11.749 8.834 o
-10 -3 27 139.688 161.003 7.198 24.151 o
-10 -3 28 72.988 61.227 4.274 56.782 o
-10 -3 29 107.791 88.115 4.080 39.069 o
-10 -2 1 365.230 375.982 5.842 8.766 o
-10 -2 2 209.697 205.148 4.366 17.718 o
-10 -2 3 719.953 778.872 9.191 3.385 o
-10 -2 4 414.844 406.361 5.961 7.609 o
-10 -2 5 11.125 15.041 1.927 328.515 o
-10 -2 6 2984.800 2966.120 26.985 0.356 o
-10 -2 7 173.569 189.153 3.919 21.224 o
-10 -2 8 11.535 11.042 1.921 355.855 o
-10 -2 9 479.632 507.384 8.198 5.977 o
-10 -2 10 1117.550 1153.350 13.553 1.783 o
-10 -2 11 364.710 326.599 5.607 9.314 o
-10 -2 12 1329.160 1431.380 15.290 1.326 o
-10 -2 13 477.571 494.660 7.410 6.112 o
-10 -2 14 131.604 129.433 3.651 30.109 o
-10 -2 15 0.222 3.460 2.007 1490.620 o
-10 -2 16 68.430 72.213 2.945 59.429 o
-10 -2 17 7.673 6.775 2.214 485.283 o
-10 -2 18 78.782 74.078 3.128 53.196 o
-10 -2 19 304.796 333.873 6.770 10.542 o
-10 -2 20 1026.780 1025.470 15.791 2.030 o
-10 -2 21 15.741 18.189 2.696 232.697 o
-10 -2 22 522.568 552.575 9.828 5.262 o
-10 -2 23 95.117 109.177 4.382 39.257 o
-10 -2 24 143.570 148.120 5.255 25.933 o
-10 -2 25 19.701 23.824 3.295 176.991 o
-10 -2 26 39.753 49.729 4.282 87.745 o
-10 -2 27 1607.100 1631.050 28.833 0.958 o
-10 -2 28 232.932 247.085 12.750 12.524 o
-10 -2 29 241.287 230.403 25.094 7.969 o
-10 -2 30 233.220 212.022 53.006 2.988 o
-10 -1 1 296.694 283.485 5.655 11.684 o
-10 -1 2 1548.080 1652.400 17.815 1.039 o
-10 -1 3 16.396 15.703 2.051 255.625 o
-10 -1 4 263.114 250.779 4.646 13.674 o
-10 -1 5 10.730 20.865 1.948 292.451 o
-10 -1 6 2349.860 2460.250 23.076 0.523 o
-10 -1 7 235.146 267.919 5.152 14.427 o
-10 -1 8 1396.130 1464.770 18.028 1.232 o
-10 -1 9 2928.160 3117.330 30.553 0.351 o
-10 -1 10 2.265 3.764 1.839 1086.420 o
-10 -1 11 965.177 946.558 11.386 2.299 o
-10 -1 12 904.867 911.311 10.660 2.504 o
-10 -1 13 869.174 877.435 10.031 2.661 o
-10 -1 14 2451.640 2551.640 23.833 0.488 o
-10 -1 15 4454.380 4585.860 42.929 0.168 o
-10 -1 16 693.583 698.243 11.790 3.621 o
-10 -1 17 1125.960 1149.180 13.980 1.769 o
-10 -1 18 109.272 125.775 4.014 34.342 o
-10 -1 19 758.776 786.997 11.470 3.161 o
-10 -1 20 1357.900 1387.860 18.891 1.299 o
-10 -1 21 384.535 417.828 9.068 7.731 o
-10 -1 22 2460.410 2528.600 39.085 0.467 o
-10 -1 23 879.527 916.689 16.862 2.461 o
-10 -1 24 12.590 12.704 3.160 270.261 o
-10 -1 25 142.316 148.323 5.349 26.014 o
-10 -1 26 22.328 17.969 2.641 191.345 o
-10 -1 27 56.638 77.228 4.527 60.721 o
-10 -1 28 3021.620 3078.890 75.945 0.294 o
-10 -1 29 38.461 49.854 7.518 66.954 o
-10 -1 30 212.361 205.913 24.084 8.939 o
-10 -1 31 7.722 7.379 2.103 484.481 o
-10 0 1 294.451 309.696 5.694 11.340 o
-10 0 2 1604.170 1719.800 17.889 0.979 o
-10 0 3 30.528 18.702 2.102 159.854 o
-10 0 4 892.976 820.526 10.338 2.671 o
-10 0 5 249.485 219.391 4.791 14.971 o
-10 0 6 2948.810 2877.520 27.463 0.367 o
-10 0 7 217.231 201.614 4.328 17.359 o
-10 0 8 4721.490 4868.320 46.806 0.151 o
-10 0 9 0.172 5.086 1.672 1517.680 o
-10 0 10 93.842 98.943 3.058 42.723 o
-10 0 11 221.144 222.753 4.371 16.477 o
-10 0 12 11.667 10.610 1.830 361.684 o
-10 0 13 1765.290 1775.460 21.789 0.858 o
-10 0 14 3097.070 3163.520 35.112 0.323 o
-10 0 15 8107.150 8046.990 76.138 0.056 o
-10 0 16 3.704 8.255 1.975 667.490 o
-10 0 17 67.437 76.138 3.018 58.726 o
-10 0 18 1142.920 1123.400 13.040 1.770 o
-10 0 19 522.880 546.480 8.915 5.332 o
-10 0 20 427.206 440.908 7.709 7.047 o
-10 0 21 305.562 311.690 6.189 10.912 o
-10 0 22 523.729 517.359 8.423 5.480 o
-10 0 23 1608.300 1615.440 24.664 0.983 o
-10 0 24 92.984 91.647 4.271 42.549 o
-10 0 25 59.644 71.678 3.755 62.964 o
-10 0 26 48.756 61.479 3.697 75.317 o
-10 0 27 471.731 467.114 10.875 6.096 o
-10 0 28 550.147 521.138 14.725 4.866 o
-10 0 29 830.418 781.999 21.283 2.668 o
-10 0 30 65.131 54.390 4.476 62.692 o
-10 0 31 7.190 9.253 2.462 438.095 o
-10 0 32 0.924 -1.463 2.221 1630.820 o
-10 1 1 0.157 3.830 2.109 1372.050 o
-10 1 2 63.051 58.089 2.657 68.274 o
-10 1 3 1816.180 1613.720 18.414 0.884 o
-10 1 4 955.678 1010.600 12.231 2.237 o
-10 1 5 96.048 103.288 3.356 41.069 o
-10 1 6 187.393 177.031 3.702 20.618 o
-10 1 7 88.550 104.800 3.177 43.340 o
-10 1 8 904.584 886.178 11.339 2.530 o
-10 1 9 210.550 161.783 4.021 19.277 o
-10 1 10 1.901 9.331 1.966 761.213 o
-10 1 11 1203.760 1132.920 16.642 1.643 o
-10 1 12 143.039 157.302 3.575 26.402 o
-10 1 13 119.732 98.021 2.798 36.099 o
-10 1 14 1.258 1.275 1.593 1934.050 o
-10 1 15 552.345 523.002 7.616 5.237 o
-10 1 16 39.895 41.063 2.224 105.943 o
-10 1 17 144.306 128.268 3.268 28.417 o
-10 1 18 19.777 18.665 1.990 217.144 o
-10 1 19 2009.340 1995.580 31.952 0.676 o
-10 1 20 159.027 137.454 3.890 25.476 o
-10 1 21 426.967 419.778 7.362 7.225 o
-10 1 22 610.593 571.068 9.584 4.529 o
-10 1 23 304.558 285.730 6.517 11.271 o
-10 1 24 48.166 49.330 4.006 80.277 o
-10 1 25 3.613 3.838 2.381 745.375 o
-10 1 26 567.086 564.033 10.405 4.830 o
-10 1 27 1038.280 1064.800 25.648 1.827 o
-10 1 28 258.899 268.776 9.573 12.338 o
-10 1 29 141.399 142.133 5.678 26.284 o
-10 1 30 83.796 91.568 5.741 42.790 o
-10 1 31 359.115 359.319 11.575 8.325 o
-10 1 32 361.084 304.962 12.566 8.614 o
-10 2 1 314.018 331.788 7.465 10.224 o
-10 2 2 47.743 55.473 3.155 81.440 o
-10 2 3 494.630 532.829 8.875 5.658 o
-10 2 4 845.322 828.566 12.059 2.776 o
-10 2 5 316.221 367.630 6.345 9.879 o
-10 2 6 3633.300 3814.680 40.669 0.239 o
-10 2 7 4.826 14.702 2.432 430.975 o
-10 2 8 4415.720 4557.560 51.718 0.168 o
-10 2 9 3737.160 3843.480 50.613 0.226 o
-10 2 10 835.733 840.249 17.091 2.681 o
-10 2 11 808.793 778.053 11.717 2.988 o
-10 2 12 234.467 212.794 4.269 16.030 o
-10 2 13 202.329 206.426 4.294 18.187 o
-10 2 14 783.001 829.668 11.224 2.998 o
-10 2 15 96.570 106.362 3.324 40.511 o
-10 2 16 16.954 13.089 2.146 260.347 o
-10 2 17 644.132 680.184 11.007 3.943 o
-10 2 18 1295.420 1272.370 18.055 1.430 o
-10 2 19 963.071 1025.820 14.655 2.173 o
-10 2 20 1006.220 998.192 19.589 2.041 o
-10 2 21 612.032 593.288 11.366 4.375 o
-10 2 22 505.403 494.743 10.287 5.654 o
-10 2 23 5.021 4.202 2.850 552.801 o
-10 2 24 54.913 56.696 3.397 73.166 o
-10 2 25 293.061 277.755 6.702 11.719 o
-10 2 26 0.087 -0.411 2.449 1671.380 o
-10 2 27 29.737 27.106 3.761 129.546 o
-10 2 28 311.390 322.879 9.367 10.079 o
-10 2 29 84.339 79.478 3.662 48.703 o
-10 2 30 0.192 3.867 3.127 795.473 o
-10 2 31 336.698 329.603 21.122 7.080 o
-10 2 32 50.097 39.333 4.067 83.168 o
-10 3 1 0.355 2.814 2.454 1192.670 o
-10 3 2 13.424 20.147 2.805 240.413 o
-10 3 3 1827.700 1889.900 25.993 0.787 o
-10 3 4 0.900 6.155 2.214 957.462 o
-10 3 5 467.838 524.138 9.515 5.932 o
-10 3 6 1917.300 1959.530 26.953 0.731 o
-10 3 7 3446.040 3519.700 37.844 0.268 o
-10 3 8 3455.270 3570.910 35.688 0.266 o
-10 3 9 701.996 693.961 9.844 3.646 o
-10 3 10 666.199 607.189 8.967 4.088 o
-10 3 11 16.108 22.464 2.360 222.192 o
-10 3 12 106.068 102.693 3.592 38.166 o
-10 3 13 143.168 139.467 3.838 27.460 o
-10 3 14 1228.600 1325.440 19.447 1.465 o
-10 3 15 4786.320 4665.070 76.906 0.144 o
-10 3 16 3.044 5.121 2.050 827.259 o
-10 3 17 596.973 551.991 8.624 4.729 o
-10 3 18 59.949 82.882 3.232 60.661 o
-10 3 19 285.999 292.693 8.156 11.424 o
-10 3 20 939.522 924.165 15.998 2.320 o
-10 3 21 2377.360 2369.290 47.248 0.485 o
-10 3 22 35.646 33.489 3.679 110.585 o
-10 3 23 675.045 653.867 15.597 3.680 o
-10 3 24 246.251 254.265 8.017 13.524 o
-10 3 25 50.168 48.140 3.524 81.141 o
-10 3 26 278.834 300.456 9.148 11.306 o
-10 3 27 108.442 92.577 4.942 37.234 o
-10 3 28 80.805 93.900 3.808 47.040 o
-10 3 29 796.926 849.023 19.368 2.723 o
-10 3 30 4.884 7.946 2.187 577.405 o
-10 3 31 14.134 7.329 2.161 331.789 o
-10 3 32 148.776 114.847 6.455 26.454 o
-10 4 1 10835.800 10930.200 111.918 0.032 o
-10 4 2 63.328 96.430 3.612 54.326 o
-10 4 3 605.878 587.252 9.322 4.516 o
-10 4 4 9624.380 9535.040 97.625 0.040 o
-10 4 5 181.456 179.188 5.144 20.501 o
-10 4 6 10007.600 9581.430 108.483 0.038 o
-10 4 7 79.688 75.802 3.506 51.713 o
-10 4 8 7160.690 6917.430 81.017 0.071 o
-10 4 9 6938.760 6876.930 75.534 0.075 o
-10 4 10 33.424 56.908 3.163 98.448 o
-10 4 11 763.872 816.456 11.530 3.085 o
-10 4 12 1199.090 1152.510 15.000 1.650 o
-10 4 13 3500.940 3662.520 44.979 0.253 o
-10 4 14 2240.580 2162.190 30.433 0.580 o
-10 4 15 1857.060 1822.390 30.431 0.774 o
-10 4 16 4205.140 4374.890 56.118 0.181 o
-10 4 17 790.988 869.670 21.383 2.652 o
-10 4 18 7.587 3.708 2.290 537.470 o
-10 4 19 3.341 8.924 2.753 539.535 o
-10 4 20 607.919 597.854 16.131 4.153 o
-10 4 21 1031.560 1051.340 27.730 1.812 o
-10 4 22 607.140 655.906 12.390 4.169 o
-10 4 23 300.000 311.983 10.786 10.207 o
-10 4 24 1252.000 1314.610 24.958 1.396 o
-10 4 25 75.668 79.430 4.572 50.475 o
-10 4 26 94.219 94.024 4.141 41.998 o
-10 4 27 404.018 413.228 8.800 7.490 o
-10 4 28 0.275 -0.328 2.493 1547.140 o
-10 4 29 31.342 24.336 3.501 132.134 o
-10 4 30 891.000 888.764 16.363 2.477 o
-10 4 31 690.452 683.500 25.626 3.097 o
-10 4 32 1.588 5.358 2.230 914.954 o
-10 5 1 564.796 562.705 11.159 4.815 o
-10 5 2 8365.470 8293.380 102.913 0.052 o
-10 5 3 847.900 845.045 13.652 2.713 o
-10 5 4 1029.050 1075.810 16.981 1.963 o
-10 5 5 563.040 555.621 9.981 4.912 o
-10 5 6 1654.640 1671.440 23.269 0.943 o
-10 5 7 11566.100 11451.600 130.828 0.028 o
-10 5 8 1720.300 1706.240 20.503 0.905 o
-10 5 9 3957.680 3969.560 45.492 0.210 o
-10 5 10 1388.790 1527.220 18.697 1.208 o
-10 5 11 115.128 98.761 3.497 36.520 o
-10 5 12 216.553 198.102 4.573 17.448 o
-10 5 13 442.429 483.371 8.416 6.522 o
-10 5 14 1861.270 1940.300 27.355 0.757 o
-10 5 15 1634.600 1698.940 24.392 0.942 o
-10 5 16 0.039 2.922 2.991 920.152 o
-10 5 17 2073.580 2257.630 36.324 0.601 o
-10 5 18 131.105 154.004 5.925 26.657 o
-10 5 19 158.059 148.538 5.179 24.233 o
-10 5 20 750.132 791.429 13.009 3.149 o
-10 5 21 1475.310 1558.950 43.752 0.959 o
-10 5 22 1622.940 1592.530 33.069 0.937 o
-10 5 23 7.571 16.895 3.621 279.338 o
-10 5 24 2.067 3.736 3.486 572.551 o
-10 5 25 24.345 25.997 2.919 159.334 o
-10 5 26 0.131 2.052 2.201 1568.740 o
-10 5 27 193.528 222.357 7.872 16.930 o
-10 5 28 513.392 546.841 13.972 5.103 o
-10 5 29 7.794 5.021 2.742 453.068 o
-10 5 30 2.617 0.366 1.645 1510.020 o
-10 5 31 42.700 35.246 4.156 94.101 o
-10 6 1 957.595 905.228 14.660 2.321 o
-10 6 2 1201.980 1198.790 16.996 1.597 o
-10 6 3 13.629 26.595 2.768 215.326 o
-10 6 4 14.305 21.108 3.235 216.773 o
-10 6 5 6480.500 6420.340 85.088 0.083 o
-10 6 6 139.124 146.125 4.425 27.205 o
-10 6 7 47.680 38.389 2.690 93.776 o
-10 6 8 0.911 9.917 2.256 750.084 o
-10 6 9 1346.900 1398.010 16.500 1.319 o
-10 6 10 162.329 195.789 4.678 21.650 o
-10 6 11 31.067 47.761 2.854 112.266 o
-10 6 12 308.998 340.106 6.661 10.364 o
-10 6 13 693.552 714.616 11.631 3.588 o
-10 6 14 534.235 555.191 11.369 5.069 o
-10 6 15 1629.840 1674.710 27.462 0.938 o
-10 6 16 677.812 707.473 14.077 3.598 o
-10 6 17 1568.030 1574.910 29.709 0.995 o
-10 6 18 240.103 257.906 9.402 13.272 o
-10 6 19 964.788 948.179 27.872 2.007 o
-10 6 20 543.516 632.554 17.116 4.376 o
-10 6 21 247.762 273.401 9.419 12.693 o
-10 6 22 191.543 205.572 7.575 17.703 o
-10 6 23 12.393 6.933 3.066 313.084 o
-10 6 24 25.884 27.745 3.401 144.192 o
-10 6 25 258.081 274.236 9.654 12.250 o
-10 6 26 502.085 519.683 15.004 5.228 o
-10 6 27 175.239 180.173 6.829 20.156 o
-10 6 28 1334.590 1281.420 42.492 1.152 o
-10 6 29 162.728 156.216 5.683 23.024 o
-10 6 30 34.042 35.792 2.690 119.644 o
-10 6 31 19.418 11.959 2.493 233.793 o
-10 7 1 82.268 77.338 3.600 50.095 o
-10 7 2 81.561 81.868 3.478 49.656 o
-10 7 3 1342.720 1316.080 17.289 1.360 o
-10 7 4 270.663 273.787 6.222 12.641 o
-10 7 5 504.545 518.600 9.957 5.569 o
-10 7 6 237.892 241.497 7.348 14.345 o
-10 7 7 584.132 594.051 10.827 4.580 o
-10 7 8 2250.120 2286.660 29.704 0.561 o
-10 7 9 290.451 336.329 7.561 10.774 o
-10 7 10 3854.990 3929.510 47.757 0.216 o
-10 7 11 30.163 36.247 2.741 127.736 o
-10 7 12 620.574 645.039 15.884 3.965 o
-10 7 13 4202.390 4136.250 54.638 0.188 o
-10 7 14 25.985 28.444 3.435 142.338 o
-10 7 15 311.282 334.610 8.462 10.098 o
-10 7 16 611.247 590.678 11.060 4.401 o
-10 7 17 2.230 2.018 2.476 943.958 o
-10 7 18 0.346 -0.693 3.591 764.133 o
-10 7 19 51.519 73.046 5.834 60.132 o
-10 7 20 101.404 117.799 5.873 34.702 o
-10 7 21 342.779 369.829 10.208 8.742 o
-10 7 22 311.609 301.542 8.780 10.453 o
-10 7 23 98.980 99.778 5.284 38.197 o
-10 7 24 1021.810 1064.900 29.299 1.789 o
-10 7 25 3.032 5.927 2.882 600.350 o
-10 7 26 74.234 69.911 4.544 53.300 o
-10 7 27 12.182 8.230 2.675 329.095 o
-10 7 28 0.148 -2.821 3.025 1092.770 o
-10 7 29 5.526 1.578 2.014 771.567 o
-10 7 30 3.267 1.811 1.368 1287.880 o
-10 8 1 515.959 529.328 10.055 5.409 o
-10 8 2 2933.080 2852.570 35.688 0.364 o
-10 8 3 1687.990 1662.810 25.734 0.916 o
-10 8 4 495.313 498.893 10.366 5.726 o
-10 8 5 1112.530 1163.470 18.141 1.738 o
-10 8 6 188.851 199.267 5.828 18.863 o
-10 8 7 135.224 145.248 4.841 27.528 o
-10 8 8 11.038 8.416 2.724 343.462 o
-10 8 9 160.145 177.003 5.650 22.268 o
-10 8 10 7.122 10.436 2.738 400.212 o
-10 8 11 1259.580 1307.640 25.493 1.387 o
-10 8 12 6629.650 6173.410 136.037 0.076 o
-10 8 13 371.853 370.680 11.947 7.954 o
-10 8 14 203.412 183.660 7.616 17.625 o
-10 8 15 139.411 147.303 6.600 25.469 o
-10 8 16 278.617 305.473 9.327 11.198 o
-10 8 17 7582.460 7721.320 86.321 0.062 o
-10 8 18 168.366 159.159 7.760 21.037 o
-10 8 19 0.788 10.405 4.034 409.311 o
-10 8 20 3286.160 3368.490 57.432 0.275 o
-10 8 21 420.089 393.906 10.671 7.205 o
-10 8 22 219.855 221.855 8.840 15.131 o
-10 8 23 26.456 33.785 4.674 117.919 o
-10 8 24 3.757 5.712 4.517 340.626 o
-10 8 25 1131.220 1152.280 29.425 1.577 o
-10 8 26 202.030 194.328 8.004 17.201 o
-10 8 27 182.080 183.145 7.686 19.054 o
-10 8 28 5.087 6.848 2.548 540.898 o
-10 8 29 15.043 13.271 1.785 291.058 o
-10 9 1 1099.780 1053.200 17.694 1.851 o
-10 9 2 2118.270 2214.120 36.628 0.593 o
-10 9 3 2637.080 2588.210 42.081 0.424 o
-10 9 4 1019.570 1093.160 18.791 1.940 o
-10 9 5 3109.100 3229.290 48.177 0.308 o
-10 9 6 250.246 264.011 7.653 13.271 o
-10 9 7 1016.860 1051.000 20.410 1.959 o
-10 9 8 1293.470 1328.370 33.802 1.260 o
-10 9 9 18.710 12.794 3.528 206.453 o
-10 9 10 163.340 190.371 7.576 20.274 o
-10 9 11 816.930 857.423 17.609 2.698 o
-10 9 12 3.691 11.428 3.574 385.900 o
-10 9 13 3767.500 3548.940 78.315 0.216 o
-10 9 14 137.596 144.125 7.617 24.974 o
-10 9 15 68.655 58.538 5.821 54.915 o
-10 9 16 429.832 451.498 14.463 6.299 o
-10 9 17 340.795 351.886 14.078 8.277 o
-10 9 18 2123.500 2164.220 38.558 0.594 o
-10 9 19 54.822 55.614 3.805 72.180 o
-10 9 20 93.526 91.822 6.130 39.217 o
-10 9 21 119.078 144.019 7.108 27.863 o
-10 9 22 349.077 382.289 9.567 8.595 o
-10 9 23 760.495 767.260 29.884 2.580 o
-10 9 24 21.357 28.842 3.292 159.530 o
-10 9 25 29.647 28.135 2.608 141.520 o
-10 9 26 41.683 33.695 8.710 62.217 o
-10 9 27 250.333 248.092 14.300 11.382 o
-10 9 28 101.767 67.833 3.247 45.012 o
-10 10 1 262.548 268.344 13.310 11.089 o
-10 10 2 364.464 350.072 12.932 8.094 o
-10 10 3 135.993 135.491 8.097 25.201 o
-10 10 4 361.949 380.643 14.192 7.682 o
-10 10 5 299.996 338.449 13.096 9.387 o
-10 10 6 2288.470 2196.130 64.417 0.477 o
-10 10 7 746.049 761.276 19.539 3.021 o
-10 10 8 45.359 48.738 3.886 84.190 o
-10 10 9 32.909 23.104 2.855 136.780 o
-10 10 10 573.679 557.222 11.139 4.770 o
-10 10 11 39.856 53.045 4.789 82.508 o
-10 10 12 327.117 341.565 19.480 7.472 o
-10 10 13 6.797 4.972 3.146 436.195 o
-10 10 14 1819.890 1916.410 144.465 0.308 o
-10 10 15 380.217 333.709 14.236 7.754 o
-10 10 16 11.134 23.634 5.300 165.160 o
-10 10 17 246.699 246.567 9.493 13.207 o
-10 10 18 159.600 145.946 7.088 22.936 o
-10 10 19 350.451 376.633 11.444 8.345 o
-10 10 20 0.644 5.408 3.740 542.837 o
-10 10 21 658.794 753.033 16.039 3.508 o
-10 10 22 540.894 561.815 12.054 4.951 o
-10 10 23 0.221 2.381 2.067 1618.240 o
-10 10 24 570.979 556.358 25.153 3.871 o
-10 10 25 6.316 5.821 2.812 478.485 o
-10 10 26 135.958 137.856 5.438 27.490 o
-10 10 27 109.730 82.075 4.932 38.230 o
-10 11 1 308.168 321.015 8.666 10.312 o
-10 11 2 426.780 428.027 14.920 6.413 o
-10 11 3 367.880 387.070 14.550 7.488 o
-10 11 4 568.625 589.456 24.453 3.854 o
-10 11 5 362.806 354.609 38.228 3.998 o
-10 11 6 825.315 790.975 29.598 2.404 o
-10 11 7 1920.700 1969.230 68.142 0.569 o
-10 11 8 124.335 126.785 5.708 29.827 o
-10 11 9 3164.500 3452.360 72.195 0.268 o
-10 11 10 135.535 141.578 5.323 27.380 o
-10 11 11 1.659 0.608 2.610 1058.870 o
-10 11 12 561.183 547.548 14.479 4.707 o
-10 11 13 243.406 202.552 10.063 14.023 o
-10 11 14 291.157 380.278 42.782 3.683 o
-10 11 15 439.265 293.269 259.648 0.149 o
-10 11 16 57.372 74.286 8.155 47.975 o
-10 11 17 1492.850 1672.510 42.909 0.924 o
-10 11 18 23.622 23.565 4.414 141.703 o
-10 11 19 451.754 456.288 12.444 6.238 o
-10 11 20 96.308 77.805 3.846 44.343 o
-10 11 21 10.149 11.866 2.523 341.298 o
-10 11 22 1889.050 1783.430 30.365 0.769 o
-10 11 23 293.682 218.723 12.976 11.020 o
-10 11 24 5.169 5.092 3.392 449.570 o
-10 11 25 0.678 1.934 1.570 2107.410 o
-10 12 1 536.309 573.304 12.982 4.887 o
-10 12 2 2271.620 2229.400 55.990 0.501 o
-10 12 3 2461.450 2482.740 61.196 0.428 o
-10 12 4 246.754 265.365 11.671 12.149 o
-10 12 5 271.364 291.592 17.491 9.310 o
-10 12 6 624.874 640.147 14.263 4.031 o
-10 12 7 94.252 99.424 5.006 39.915 o
-10 12 8 613.802 596.494 12.336 4.311 o
-10 12 9 178.316 187.105 6.051 20.027 o
-10 12 10 392.174 459.685 15.055 6.615 o
-10 12 11 784.423 785.776 16.723 2.937 o
-10 12 12 524.046 528.937 12.272 5.205 o
-10 12 13 282.533 301.625 9.963 10.993 o
-10 12 14 305.936 318.241 10.850 9.973 o
-10 12 15 1428.320 1516.600 40.074 1.030 o
-10 12 16 132.640 148.845 8.252 24.665 o
-10 12 17 183.501 193.235 7.581 18.649 o
-10 12 18 3856.290 4013.850 92.498 0.189 o
-10 12 19 414.105 419.667 10.535 7.123 o
-10 12 20 32.162 38.847 3.202 116.296 o
-10 12 21 497.314 504.557 11.516 5.601 o
-10 12 22 107.806 95.225 4.921 37.096 o
-10 12 23 325.727 228.022 11.486 10.454 o
-10 13 1 768.902 722.125 17.303 3.085 o
-10 13 2 78.031 78.430 6.531 44.952 o
-10 13 4 5570.960 5803.240 188.123 0.082 o
-10 13 5 2352.220 2587.190 62.606 0.434 o
-10 13 6 43.900 48.218 4.679 81.485 o
-10 13 7 1379.030 1452.860 49.305 0.996 o
-10 13 8 266.020 382.451 11.070 10.114 o
-10 13 9 939.039 908.848 25.502 2.146 o
-10 13 10 828.294 881.744 24.002 2.462 o
-10 13 11 680.582 700.883 24.759 3.142 o
-10 13 12 0.243 1.644 2.272 1525.590 o
-10 13 13 596.923 676.672 16.270 3.988 o
-10 13 14 1130.720 1172.490 39.170 1.420 o
-10 13 15 515.471 512.982 16.549 5.023 o
-10 13 16 610.468 630.720 15.388 4.084 o
-10 13 17 7.635 5.163 2.684 462.111 o
-10 13 18 214.066 214.878 5.727 16.748 o
-10 13 19 3093.660 2757.330 205.246 0.146 o
-10 13 20 19.434 13.053 2.563 227.549 o
-10 13 21 9.744 4.810 1.632 500.278 o
-10 14 1 258.036 247.033 7.951 13.219 o
-10 14 2 777.752 802.942 26.888 2.600 o
-10 14 3 2458.670 2532.220 43.246 0.460 o
-10 14 4 397.146 344.841 10.278 7.979 o
-10 14 5 1238.520 1339.170 28.279 1.365 o
-10 14 6 127.976 157.388 6.410 26.432 o
-10 14 7 752.642 815.002 16.100 3.014 o
-10 14 8 419.142 426.032 14.499 6.564 o
-10 14 9 949.442 941.124 29.159 2.011 o
-10 14 10 1061.580 1098.810 54.402 1.264 o
-10 14 11 274.699 282.587 8.900 11.766 o
-10 14 12 15.010 17.738 3.895 202.876 o
-10 14 13 112.085 116.464 8.942 28.549 o
-10 14 14 74.053 76.381 7.256 44.660 o
-10 14 15 702.755 765.690 20.646 3.126 o
-10 14 16 95.308 113.889 5.592 36.908 o
-10 14 17 849.431 851.335 24.560 2.431 o
-10 14 18 2.880 3.843 2.080 904.020 o
-10 14 19 4.293 4.099 2.136 741.077 o
-10 15 1 2.292 10.449 2.198 647.694 o
-10 15 2 181.516 191.218 5.184 19.988 o
-10 15 3 308.272 331.844 7.250 10.405 o
-10 15 4 758.655 765.597 13.351 3.157 o
-10 15 5 41.434 51.167 3.652 88.639 o
-10 15 6 8.379 14.832 2.726 334.151 o
-10 15 7 81.984 77.080 4.197 49.147 o
-10 15 8 1342.080 1308.910 43.697 1.123 o
-10 15 9 476.381 485.239 12.393 5.831 o
-10 15 10 56.774 69.448 3.548 66.269 o
-10 15 11 88.625 82.558 9.123 35.291 o
-10 15 12 743.549 876.465 31.996 2.410 o
-10 15 13 432.142 433.526 12.762 6.563 o
-10 15 14 8.894 6.579 2.509 423.981 o
-10 15 15 732.675 644.424 15.099 3.457 o
-10 15 16 120.893 86.710 3.702 36.390 o
-10 16 1 370.313 373.770 7.212 8.557 o
-10 16 2 609.162 631.508 13.581 4.176 o
-10 16 3 179.799 204.591 5.300 19.551 o
-10 16 4 560.223 530.644 10.220 5.021 o
-10 16 5 1884.250 1826.330 30.395 0.762 o
-10 16 6 36.314 47.155 2.956 102.812 o
-10 16 7 249.687 225.647 7.425 14.152 o
-10 16 8 335.505 321.388 9.202 9.558 o
-10 16 10 513.402 473.944 18.309 5.036 o
-10 16 11 1479.440 1389.530 46.261 0.984 o
-10 16 12 101.043 72.004 4.607 42.567 o
-10 17 1 763.484 598.402 46.908 2.063 o
-10 17 2 1205.550 925.212 109.136 0.590 o
-10 17 3 1021.520 754.617 73.393 1.074 o
-10 17 4 300.920 207.949 22.255 8.123 o
-9 -10 5 119.089 94.871 5.928 33.359 o
-9 -10 6 368.273 293.749 7.152 9.429 o
-9 -10 7 1330.280 1032.900 30.765 1.400 o
-9 -10 8 37.462 25.898 2.244 126.423 o
-9 -10 9 509.164 440.313 29.763 4.064 o
-9 -10 10 191.979 174.710 9.202 17.819 o
-9 -10 11 852.373 653.388 32.544 2.396 o
-9 -9 1 64.090 60.535 3.690 63.889 o
-9 -9 2 80.180 82.393 4.957 47.237 o
-9 -9 3 2.017 5.784 2.481 769.175 o
-9 -9 4 773.291 824.160 39.047 2.149 o
-9 -9 5 2202.200 2313.550 67.822 0.473 o
-9 -9 6 0.960 3.501 3.543 620.671 o
-9 -9 7 1300.230 1375.610 28.947 1.281 o
-9 -9 8 244.309 261.687 7.685 13.546 o
-9 -9 9 69.274 58.776 3.505 61.649 o
-9 -9 10 189.891 189.662 8.912 17.639 o
-9 -9 11 3073.890 3055.400 113.190 0.242 o
-9 -9 12 91.365 77.719 5.482 43.113 o
-9 -9 13 525.876 557.226 23.733 4.212 o
-9 -9 14 0.670 2.911 3.299 732.701 o
-9 -9 15 702.486 650.672 18.276 3.450 o
-9 -9 16 520.676 545.399 22.312 4.395 o
-9 -8 1 0.069 2.011 1.921 1949.700 o
-9 -8 2 869.425 914.828 13.698 2.550 o
-9 -8 3 1404.510 1503.060 25.452 1.164 o
-9 -8 4 52.370 53.702 3.239 77.379 o
-9 -8 5 340.863 370.524 8.581 9.008 o
-9 -8 6 1724.840 1771.650 28.378 0.856 o
-9 -8 7 3.572 9.493 2.967 488.553 o
-9 -8 8 0.943 3.235 2.598 977.175 o
-9 -8 9 1260.200 1286.600 33.892 1.308 o
-9 -8 10 342.124 381.565 10.700 8.567 o
-9 -8 11 1311.480 1355.680 31.581 1.255 o
-9 -8 12 592.307 615.376 15.819 4.210 o
-9 -8 13 34.161 26.877 3.424 122.922 o
-9 -8 14 461.258 476.795 13.144 5.961 o
-9 -8 15 1188.710 1217.200 27.334 1.496 o
-9 -8 16 7.812 12.528 4.160 269.711 o
-9 -8 17 133.983 409.264 189.893 0.279 o
-9 -7 1 597.976 669.522 15.701 4.030 o
-9 -7 2 236.796 240.885 7.376 14.400 o
-9 -7 3 492.350 522.045 11.871 5.541 o
-9 -7 4 326.643 347.489 9.114 9.479 o
-9 -7 5 8.986 14.861 3.447 284.313 o
-9 -7 6 254.073 246.161 7.987 13.382 o
-9 -7 7 2264.840 2364.150 32.415 0.542 o
-9 -7 8 5.982 7.416 2.545 495.852 o
-9 -7 9 6.642 7.048 2.696 462.343 o
-9 -7 10 34.481 30.657 3.489 117.435 o
-9 -7 11 859.278 882.471 17.043 2.556 o
-9 -7 12 1333.300 1336.090 21.340 1.332 o
-9 -7 13 242.741 229.378 9.086 13.843 o
-9 -7 14 49.014 50.223 3.906 79.467 o
-9 -7 15 292.131 294.600 8.098 11.223 o
-9 -7 16 7.851 6.529 3.217 384.507 o
-9 -7 17 79.708 95.088 5.987 42.996 o
-9 -7 18 132.731 167.840 9.112 22.837 o
-9 -6 1 1611.490 1636.700 21.993 0.986 o
-9 -6 2 72.279 76.853 3.653 54.650 o
-9 -6 3 314.126 303.918 6.705 10.705 o
-9 -6 4 23.822 30.287 3.320 147.848 o
-9 -6 5 4.603 14.669 3.246 365.285 o
-9 -6 6 848.926 825.712 15.453 2.701 o
-9 -6 7 339.506 351.301 7.503 9.384 o
-9 -6 8 635.192 654.381 11.687 4.040 o
-9 -6 9 5.956 7.158 2.996 446.697 o
-9 -6 10 8.908 8.394 2.643 390.725 o
-9 -6 11 373.316 388.916 8.117 8.267 o
-9 -6 12 325.525 354.903 6.869 9.743 o
-9 -6 13 976.315 1008.480 13.713 2.176 o
-9 -6 14 34.894 37.746 2.709 115.637 o
-9 -6 15 655.452 632.279 9.292 4.068 o
-9 -6 16 35.636 33.435 2.206 122.100 o
-9 -6 17 55.269 63.351 2.554 72.641 o
-9 -6 18 552.543 608.313 8.668 4.848 o
-9 -6 19 71.839 94.091 7.954 40.761 o
-9 -6 20 41.621 41.255 4.406 89.811 o
-9 -6 21 94.275 88.752 5.344 40.845 o
-9 -6 22 7.537 5.136 4.463 294.982 o
-9 -6 23 1.467 5.101 3.709 522.022 o
-9 -6 24 624.850 583.313 21.982 3.762 o
-9 -6 25 9.423 5.934 3.243 357.048 o
-9 -5 1 416.230 445.060 7.704 7.172 o
-9 -5 2 255.271 261.899 5.704 13.570 o
-9 -5 3 27.884 26.965 2.766 147.162 o
-9 -5 4 1097.710 1161.050 15.620 1.789 o
-9 -5 5 388.816 407.226 7.933 7.862 o
-9 -5 6 8.829 13.140 2.394 361.169 o
-9 -5 7 2785.460 2711.360 36.187 0.396 o
-9 -5 8 624.093 637.016 10.608 4.195 o
-9 -5 9 9.973 11.925 2.119 366.913 o
-9 -5 10 329.532 328.585 5.649 10.113 o
-9 -5 11 4043.300 4077.010 34.616 0.205 o
-9 -5 12 1274.590 1255.890 12.313 1.500 o
-9 -5 13 0.470 5.144 1.736 1375.630 o
-9 -5 14 1928.480 1948.120 19.656 0.747 o
-9 -5 15 28.084 28.254 2.089 151.491 o
-9 -5 16 241.704 253.978 4.324 14.607 o
-9 -5 17 12.965 12.984 1.762 322.261 o
-9 -5 18 32.511 33.938 2.128 129.554 o
-9 -5 19 3496.240 3447.800 33.599 0.268 o
-9 -5 20 881.044 907.870 13.094 2.538 o
-9 -5 21 49.848 53.292 3.854 77.412 o
-9 -5 22 1101.530 1142.980 22.201 1.722 o
-9 -5 23 190.075 179.052 6.379 19.276 o
-9 -5 24 356.884 367.944 10.904 8.391 o
-9 -5 25 83.607 72.124 4.079 49.729 o
-9 -5 26 113.931 124.317 4.730 32.860 o
-9 -5 27 1024.140 1103.430 22.802 1.865 o
-9 -5 28 241.573 228.436 9.672 13.707 o
-9 -5 29 153.149 149.060 5.545 24.531 o
-9 -4 1 137.751 143.079 3.986 27.889 o
-9 -4 2 1641.510 1621.890 17.245 0.989 o
-9 -4 3 8.754 13.341 1.967 386.016 o
-9 -4 4 2496.620 2628.550 23.629 0.470 o
-9 -4 5 1478.730 1481.520 14.150 1.171 o
-9 -4 6 38.712 50.828 3.928 90.612 o
-9 -4 7 2331.150 2364.020 23.866 0.539 o
-9 -4 8 1502.560 1503.510 18.232 1.126 o
-9 -4 9 1007.900 994.759 15.982 2.094 o
-9 -4 10 4.165 5.720 1.620 794.883 o
-9 -4 11 678.460 669.197 7.398 3.887 o
-9 -4 12 2383.690 2314.930 20.843 0.536 o
-9 -4 13 426.452 432.698 5.823 7.243 o
-9 -4 14 1328.410 1335.460 12.358 1.392 o
-9 -4 15 55.387 62.630 2.211 73.703 o
-9 -4 16 2.923 3.952 1.617 1049.640 o
-9 -4 17 17.699 18.526 1.749 238.110 o
-9 -4 18 242.619 272.013 4.287 14.161 o
-9 -4 19 125.533 139.309 3.265 30.539 o
-9 -4 20 1071.390 1064.320 15.106 1.920 o
-9 -4 21 1.687 2.672 2.961 777.595 o
-9 -4 22 1.623 3.781 3.241 655.451 o
-9 -4 23 257.714 236.746 7.026 13.683 o
-9 -4 24 604.668 626.762 14.102 4.192 o
-9 -4 25 1194.610 1293.030 28.040 1.438 o
-9 -4 26 688.825 694.930 28.280 2.955 o
-9 -4 27 419.898 428.786 13.936 6.606 o
-9 -4 28 4.244 4.623 3.124 529.783 o
-9 -4 29 1.182 7.835 3.250 568.967 o
-9 -4 30 64.817 84.340 4.499 54.468 o
-9 -3 1 554.051 574.226 8.097 4.991 o
-9 -3 2 130.155 139.490 3.708 29.489 o
-9 -3 3 500.649 500.701 6.743 5.867 o
-9 -3 4 1664.610 1724.130 15.641 0.947 o
-9 -3 5 401.562 384.401 5.472 8.043 o
-9 -3 6 2298.970 2287.720 21.009 0.561 o
-9 -3 7 1198.640 1264.580 13.883 1.582 o
-9 -3 8 64.704 57.366 2.566 67.529 o
-9 -3 9 1739.230 1699.150 16.635 0.908 o
-9 -3 10 152.224 154.782 3.776 25.303 o
-9 -3 11 71.215 62.267 2.387 61.812 o
-9 -3 12 315.052 300.046 4.561 11.012 o
-9 -3 13 233.834 228.899 4.071 15.671 o
-9 -3 14 915.658 899.914 9.625 2.503 o
-9 -3 15 48.767 47.193 2.194 88.604 o
-9 -3 16 254.898 250.248 4.091 14.131 o
-9 -3 17 1600.130 1563.540 14.543 1.045 o
-9 -3 18 116.474 117.537 2.940 34.556 o
-9 -3 19 19.356 22.292 2.058 206.693 o
-9 -3 20 25.375 34.552 2.593 144.971 o
-9 -3 21 220.495 235.517 5.813 15.786 o
-9 -3 22 109.674 104.653 4.316 36.277 o
-9 -3 23 190.727 182.587 5.418 19.509 o
-9 -3 24 286.335 286.974 7.109 11.711 o
-9 -3 25 53.998 56.201 4.178 71.121 o
-9 -3 26 542.258 549.107 11.154 5.041 o
-9 -3 27 226.290 263.279 7.440 14.350 o
-9 -3 28 1.018 0.873 5.677 298.045 o
-9 -3 29 106.014 126.428 6.909 31.559 o
-9 -3 30 28.738 23.045 3.696 138.591 o
-9 -3 31 726.381 754.692 27.875 2.771 o
-9 -2 1 155.698 188.742 4.064 22.895 o
-9 -2 2 262.119 274.089 4.951 13.190 o
-9 -2 3 1532.580 1580.330 16.178 1.082 o
-9 -2 4 4.544 7.441 1.775 672.457 o
-9 -2 5 3194.130 3257.370 27.576 0.311 o
-9 -2 6 1.333 4.869 1.621 1261.620 o
-9 -2 7 339.814 332.206 4.822 9.898 o
-9 -2 8 254.561 251.872 4.545 14.034 o
-9 -2 9 875.414 869.812 10.086 2.653 o
-9 -2 10 4.903 9.942 1.743 585.641 o
-9 -2 11 235.027 249.486 4.188 15.062 o
-9 -2 12 1688.110 1705.140 15.359 0.940 o
-9 -2 13 1550.970 1459.130 13.476 1.124 o
-9 -2 14 421.203 436.518 5.500 7.311 o
-9 -2 15 429.857 432.790 5.641 7.204 o
-9 -2 16 1167.530 1149.350 10.898 1.728 o
-9 -2 17 2847.250 2895.350 24.130 0.383 o
-9 -2 18 319.909 322.611 4.943 10.519 o
-9 -2 19 657.157 712.712 8.640 3.855 o
-9 -2 20 70.085 72.977 3.155 57.849 o
-9 -2 21 1177.030 1174.820 19.573 1.623 o
-9 -2 22 657.811 702.874 13.756 3.717 o
-9 -2 23 162.539 177.451 5.796 21.940 o
-9 -2 24 76.061 81.907 4.000 51.010 o
-9 -2 25 19.064 29.898 2.862 174.028 o
-9 -2 26 89.098 97.121 5.306 41.197 o
-9 -2 27 9.493 12.404 2.768 333.302 o
-9 -2 28 423.979 470.280 11.158 6.602 o
-9 -2 29 31.477 29.205 3.700 123.499 o
-9 -2 30 316.253 301.691 8.766 10.334 o
-9 -2 31 60.117 53.650 3.360 70.266 o
-9 -2 32 95.033 92.445 17.897 18.717 o
-9 -1 1 2232.860 2310.810 24.916 0.571 o
-9 -1 2 59.224 64.270 2.710 68.701 o
-9 -1 3 4245.110 4237.010 38.983 0.188 o
-9 -1 4 183.477 168.412 3.839 21.293 o
-9 -1 5 3005.240 2984.330 27.315 0.352 o
-9 -1 6 249.110 286.137 5.077 13.447 o
-9 -1 7 2663.260 2653.120 27.873 0.431 o
-9 -1 8 1623.310 1572.210 15.970 1.021 o
-9 -1 9 175.973 197.064 3.468 20.808 o
-9 -1 10 381.872 363.958 4.996 8.625 o
-9 -1 11 2.247 8.194 2.126 743.114 o
-9 -1 12 1867.160 1892.750 16.801 0.793 o
-9 -1 13 1.757 8.629 2.017 792.041 o
-9 -1 14 314.040 318.061 4.492 10.790 o
-9 -1 15 3627.590 3620.750 28.586 0.252 o
-9 -1 16 597.435 609.809 6.682 4.582 o
-9 -1 17 5153.850 5117.450 42.741 0.133 o
-9 -1 18 417.418 406.310 7.098 7.487 o
-9 -1 19 268.129 266.141 5.391 13.034 o
-9 -1 20 4421.900 4410.500 49.380 0.172 o
-9 -1 21 2.537 10.603 2.513 576.341 o
-9 -1 22 435.430 442.761 7.479 6.938 o
-9 -1 23 3927.870 3973.580 42.272 0.213 o
-9 -1 24 177.004 173.313 4.863 21.259 o
-9 -1 25 90.555 78.601 3.955 46.031 o
-9 -1 26 184.774 203.092 6.405 18.774 o
-9 -1 27 1477.150 1492.460 24.828 1.115 o
-9 -1 28 858.951 924.861 16.579 2.510 o
-9 -1 29 59.600 59.237 3.927 66.666 o
-9 -1 30 463.843 456.192 13.421 6.016 o
-9 -1 31 5.772 5.359 2.542 544.230 o
-9 -1 32 238.939 204.944 11.335 13.649 o
-9 -1 33 6.303 2.631 2.181 644.685 o
-9 0 1 2426.610 2454.340 24.996 0.503 o
-9 0 2 979.500 1017.580 12.221 2.177 o
-9 0 3 338.442 355.833 6.206 9.513 o
-9 0 4 57.825 66.754 2.579 69.142 o
-9 0 5 4393.820 4216.930 40.064 0.181 o
-9 0 6 2691.490 2607.890 24.480 0.433 o
-9 0 7 4460.910 4389.910 39.200 0.173 o
-9 0 8 3541.670 3443.290 27.950 0.267 o
-9 0 9 92.181 80.656 2.561 46.977 o
-9 0 10 1174.410 1218.990 13.339 1.650 o
-9 0 11 805.667 775.101 8.333 3.066 o
-9 0 12 456.212 431.423 6.729 6.787 o
-9 0 13 4871.530 4704.670 46.846 0.148 o
-9 0 14 2.785 7.808 1.740 800.553 o
-9 0 15 2000.720 2105.420 19.498 0.688 o
-9 0 16 3775.410 3874.410 33.042 0.229 o
-9 0 17 266.238 285.531 5.131 12.783 o
-9 0 18 526.602 512.956 7.223 5.530 o
-9 0 19 731.137 705.242 9.648 3.488 o
-9 0 20 2369.450 2359.480 26.659 0.526 o
-9 0 21 4443.040 4374.970 46.405 0.173 o
-9 0 22 77.197 81.238 3.290 51.998 o
-9 0 23 527.174 483.294 7.777 5.640 o
-9 0 24 1065.020 1060.910 17.369 1.907 o
-9 0 25 393.769 381.948 7.966 7.987 o
-9 0 26 339.897 367.060 8.156 9.121 o
-9 0 27 41.890 40.297 3.255 97.655 o
-9 0 28 23.099 31.314 3.146 151.008 o
-9 0 29 1388.840 1487.410 40.464 1.061 o
-9 0 30 169.172 174.122 6.654 21.011 o
-9 0 31 1.864 3.360 2.442 920.207 o
-9 0 32 158.982 159.974 5.115 23.544 o
-9 0 33 91.211 87.573 5.720 41.211 o
-9 1 1 2204.910 2086.860 24.945 0.612 o
-9 1 2 41.272 45.774 2.610 98.041 o
-9 1 3 127.323 163.234 4.238 27.782 o
-9 1 4 932.010 841.330 10.970 2.521 o
-9 1 5 309.481 334.957 5.536 10.566 o
-9 1 6 504.420 448.110 6.757 6.107 o
-9 1 7 1757.490 1686.340 18.766 0.896 o
-9 1 8 2288.500 2189.910 22.079 0.576 o
-9 1 9 1.663 7.951 1.716 916.948 o
-9 1 10 2.444 11.288 1.744 689.197 o
-9 1 11 8.842 9.674 1.486 459.641 o
-9 1 12 45.856 41.057 1.964 97.492 o
-9 1 13 383.874 365.202 5.385 8.545 o
-9 1 14 1505.910 1464.050 14.626 1.154 o
-9 1 15 3.837 7.514 1.692 733.796 o
-9 1 16 1028.260 998.861 11.663 2.100 o
-9 1 17 479.616 471.612 7.111 6.235 o
-9 1 18 87.249 98.677 2.898 45.124 o
-9 1 19 739.821 725.420 11.660 3.357 o
-9 1 20 486.857 515.412 11.304 5.664 o
-9 1 21 444.115 418.415 7.109 7.012 o
-9 1 22 291.257 273.025 5.464 12.064 o
-9 1 23 330.804 328.404 6.844 9.937 o
-9 1 24 265.027 267.508 6.539 12.901 o
-9 1 25 44.404 42.027 3.349 92.374 o
-9 1 26 816.706 799.171 12.927 2.900 o
-9 1 27 1124.120 1187.940 17.512 1.709 o
-9 1 28 201.014 215.638 6.325 17.309 o
-9 1 29 0.420 -0.573 2.185 1900.950 o
-9 1 30 23.557 23.670 3.420 158.862 o
-9 1 31 49.190 37.650 3.910 86.001 o
-9 1 32 11.560 7.067 2.381 367.798 o
-9 1 33 57.813 51.771 4.783 67.362 o
-9 2 1 1322.700 1212.430 18.122 1.432 o
-9 2 2 346.165 305.766 6.492 9.884 o
-9 2 3 1077.620 1138.180 15.020 1.846 o
-9 2 4 11.861 9.408 1.715 375.136 o
-9 2 5 85.784 72.570 2.609 51.151 o
-9 2 6 5.533 12.363 1.814 500.613 o
-9 2 7 10.777 11.894 1.829 366.544 o
-9 2 8 375.623 384.409 5.853 8.482 o
-9 2 9 338.598 413.556 6.851 8.825 o
-9 2 10 174.809 173.884 4.033 21.767 o
-9 2 11 468.789 458.375 7.010 6.444 o
-9 2 12 188.933 196.879 4.072 19.573 o
-9 2 13 853.610 863.138 13.226 2.677 o
-9 2 14 360.035 414.401 7.235 8.368 o
-9 2 15 30.344 26.314 2.190 146.243 o
-9 2 16 0.066 5.053 1.880 1401.050 o
-9 2 17 43.691 54.639 2.750 88.163 o
-9 2 18 495.678 476.836 10.021 5.856 o
-9 2 19 18.003 21.698 2.208 214.757 o
-9 2 20 530.891 513.716 8.511 5.427 o
-9 2 21 676.241 671.335 15.841 3.623 o
-9 2 22 350.149 389.428 7.675 8.745 o
-9 2 23 118.787 113.375 4.711 32.999 o
-9 2 24 222.833 222.350 6.336 15.857 o
-9 2 25 1159.960 1158.590 17.269 1.681 o
-9 2 26 427.914 413.836 8.417 7.170 o
-9 2 27 185.729 183.095 5.585 19.808 o
-9 2 28 147.640 137.812 5.006 26.241 o
-9 2 29 140.560 147.036 5.223 26.411 o
-9 2 30 264.193 278.843 7.592 12.491 o
-9 2 31 411.699 434.988 11.149 6.986 o
-9 2 32 449.968 400.702 52.732 2.448 o
-9 2 33 1259.250 1109.650 37.860 1.343 o
-9 3 1 2728.480 2742.120 38.125 0.401 o
-9 3 2 4705.280 4753.520 50.904 0.153 o
-9 3 3 53.210 61.490 2.984 73.958 o
-9 3 4 486.846 468.867 8.266 6.103 o
-9 3 5 66.418 95.677 5.381 48.993 o
-9 3 6 125.013 116.075 4.874 31.428 o
-9 3 7 787.832 819.578 11.920 2.985 o
-9 3 8 999.802 1116.330 13.674 2.019 o
-9 3 9 3.469 6.821 1.745 782.221 o
-9 3 10 69.068 79.201 3.379 56.261 o
-9 3 11 64.870 47.336 2.456 71.561 o
-9 3 12 521.966 530.294 7.557 5.477 o
-9 3 13 874.652 909.984 12.948 2.555 o
-9 3 14 481.262 462.970 9.832 6.093 o
-9 3 15 68.759 61.671 3.521 61.037 o
-9 3 16 496.863 432.817 8.337 6.187 o
-9 3 17 344.526 335.571 6.928 9.521 o
-9 3 18 3347.650 3528.740 57.365 0.263 o
-9 3 19 89.777 107.023 4.410 41.003 o
-9 3 20 195.734 185.680 6.008 18.783 o
-9 3 21 2091.900 2194.980 58.930 0.536 o
-9 3 22 3.020 -0.539 2.742 859.509 o
-9 3 23 8.724 12.354 2.786 345.412 o
-9 3 24 2.736 1.958 2.374 926.942 o
-9 3 25 183.865 166.254 5.465 20.701 o
-9 3 26 1091.540 1066.430 17.449 1.857 o
-9 3 27 204.837 209.385 6.842 17.071 o
-9 3 28 1997.950 1966.710 49.568 0.625 o
-9 3 29 533.520 498.869 11.300 5.314 o
-9 3 30 93.322 89.952 7.621 36.622 o
-9 3 31 0.694 1.486 1.854 1852.970 o
-9 3 32 229.902 251.790 9.020 13.934 o
-9 3 33 382.322 290.901 11.911 8.468 o
-9 4 1 9321.520 9222.200 106.696 0.042 o
-9 4 2 1856.950 1812.970 21.686 0.804 o
-9 4 3 1397.010 1491.450 21.846 1.198 o
-9 4 4 1306.560 1294.560 16.453 1.416 o
-9 4 5 1098.880 1183.230 16.758 1.759 o
-9 4 6 1307.240 1470.650 20.802 1.295 o
-9 4 7 6727.310 6501.230 71.492 0.081 o
-9 4 8 3610.990 3516.070 40.306 0.252 o
-9 4 9 84.239 104.083 3.608 44.326 o
-9 4 10 1867.330 1847.660 21.721 0.791 o
-9 4 11 437.678 459.829 7.168 6.816 o
-9 4 12 1716.110 1666.940 19.003 0.924 o
-9 4 13 3044.860 3147.240 34.621 0.331 o
-9 4 14 14404.700 14316.800 152.101 0.018 o
-9 4 15 51.650 70.210 3.537 69.829 o
-9 4 16 3482.440 3393.840 48.614 0.264 o
-9 4 17 1884.420 1851.340 28.775 0.762 o
-9 4 18 64.748 65.938 3.734 61.617 o
-9 4 19 1248.230 1338.840 21.718 1.417 o
-9 4 20 100.460 90.075 5.169 39.248 o
-9 4 21 2382.280 2385.920 49.496 0.477 o
-9 4 22 10338.600 10862.900 68.367 0.035 o
-9 4 23 1217.310 1163.980 20.654 1.567 o
-9 4 24 632.283 684.771 15.826 3.804 o
-9 4 25 1164.800 1212.180 21.202 1.598 o
-9 4 26 630.266 640.467 11.682 4.108 o
-9 4 27 1477.520 1514.240 40.671 0.995 o
-9 4 28 7.452 13.322 3.142 334.755 o
-9 4 29 670.334 640.290 15.921 3.721 o
-9 4 30 787.899 781.485 15.183 2.974 o
-9 4 31 29.448 26.150 2.882 142.175 o
-9 4 32 219.196 189.584 7.198 16.668 o
-9 5 1 20402.700 20021.200 258.559 0.009 o
-9 5 2 5654.090 5495.100 78.231 0.108 o
-9 5 3 168.149 169.889 4.905 22.220 o
-9 5 4 1374.330 1422.990 20.126 1.259 o
-9 5 5 887.448 845.501 15.600 2.560 o
-9 5 6 4780.500 4480.490 56.023 0.154 o
-9 5 7 9118.390 8931.370 91.589 0.045 o
-9 5 8 9.366 15.008 2.166 347.114 o
-9 5 9 6069.360 6045.210 57.559 0.097 o
-9 5 10 202.914 209.830 4.451 17.988 o
-9 5 11 10.148 13.568 1.951 356.689 o
-9 5 12 759.308 690.847 9.529 3.398 o
-9 5 13 1349.460 1331.890 18.461 1.338 o
-9 5 14 6630.480 6615.300 89.799 0.079 o
-9 5 15 11142.500 11291.800 137.765 0.029 o
-9 5 16 7.643 17.818 2.750 320.993 o
-9 5 17 426.690 473.779 12.104 6.457 o
-9 5 18 5.093 19.041 4.240 259.671 o
-9 5 19 444.433 417.763 10.025 6.780 o
-9 5 20 1479.770 1511.200 23.312 1.115 o
-9 5 21 13.912 19.582 4.560 183.422 o
-9 5 22 1687.630 1617.200 30.617 0.907 o
-9 5 23 398.249 448.133 14.120 6.730 o
-9 5 24 153.754 169.030 6.907 22.500 o
-9 5 25 165.726 141.814 4.788 23.976 o
-9 5 26 27.050 21.522 3.576 147.871 o
-9 5 27 206.024 209.318 10.269 15.492 o
-9 5 28 124.007 116.479 7.242 29.006 o
-9 5 29 1.057 6.192 3.694 519.877 o
-9 5 30 106.177 97.769 4.545 37.669 o
-9 5 31 34.544 34.261 3.093 117.025 o
-9 5 32 10.997 13.366 2.534 315.688 o
-9 6 1 2513.560 2433.130 35.895 0.471 o
-9 6 2 15257.400 14957.300 195.393 0.016 o
-9 6 3 3358.940 3311.090 47.248 0.279 o
-9 6 4 782.646 768.728 12.100 3.091 o
-9 6 5 814.030 942.062 15.568 2.631 o
-9 6 6 848.711 900.416 14.649 2.610 o
-9 6 7 91.598 87.801 3.373 44.911 o
-9 6 8 30.329 38.685 2.512 126.234 o
-9 6 9 1988.430 2079.210 25.338 0.685 o
-9 6 10 592.725 598.908 9.426 4.562 o
-9 6 11 701.336 728.340 11.530 3.523 o
-9 6 12 213.355 201.778 5.957 17.108 o
-9 6 13 299.390 309.111 7.852 10.853 o
-9 6 14 9.754 9.923 2.579 362.371 o
-9 6 15 999.595 1035.060 18.017 2.042 o
-9 6 16 244.911 255.382 9.870 12.986 o
-9 6 17 96.040 92.126 4.436 41.309 o
-9 6 18 2964.870 3096.990 77.567 0.296 o
-9 6 19 34.150 30.506 4.692 106.211 o
-9 6 20 112.634 123.750 6.241 31.478 o
-9 6 21 2.616 1.690 3.462 601.281 o
-9 6 22 0.322 3.436 3.220 767.757 o
-9 6 23 554.180 598.245 13.940 4.612 o
-9 6 24 944.138 933.792 27.539 2.065 o
-9 6 25 248.030 242.578 9.454 13.245 o
-9 6 26 1968.020 2016.890 50.387 0.623 o
-9 6 27 68.845 77.966 5.855 50.330 o
-9 6 28 20.064 9.608 5.161 161.428 o
-9 6 29 86.503 82.263 5.366 44.181 o
-9 6 30 92.595 79.470 3.541 45.786 o
-9 6 31 497.604 452.529 11.453 5.856 o
-9 6 32 235.688 192.565 8.961 15.025 o
-9 7 1 4638.200 4713.660 66.680 0.152 o
-9 7 2 228.499 247.976 7.834 14.473 o
-9 7 3 461.282 455.819 9.552 6.379 o
-9 7 4 2590.850 2641.970 36.971 0.434 o
-9 7 5 2193.280 2345.750 31.051 0.566 o
-9 7 6 3574.960 3483.080 45.751 0.254 o
-9 7 7 608.725 621.228 11.106 4.318 o
-9 7 8 2853.710 2807.650 37.766 0.377 o
-9 7 9 6714.160 6901.500 93.674 0.076 o
-9 7 10 643.351 697.184 15.626 3.727 o
-9 7 11 780.370 781.903 13.190 3.050 o
-9 7 12 69.220 61.806 4.058 59.287 o
-9 7 13 140.923 141.690 5.667 26.383 o
-9 7 14 655.927 634.913 19.579 3.631 o
-9 7 15 17.588 21.414 3.014 200.595 o
-9 7 16 254.450 277.385 11.976 11.618 o
-9 7 17 234.636 240.114 9.975 13.643 o
-9 7 18 1256.070 1302.190 38.596 1.251 o
-9 7 19 1716.480 1854.700 50.763 0.733 o
-9 7 20 47.859 28.398 4.477 89.559 o
-9 7 21 546.568 576.407 13.861 4.747 o
-9 7 22 859.504 874.000 16.227 2.585 o
-9 7 23 23.444 18.380 4.297 152.801 o
-9 7 24 1201.550 1223.360 27.451 1.476 o
-9 7 25 46.487 50.166 4.476 79.062 o
-9 7 26 91.185 88.975 5.811 40.843 o
-9 7 27 1004.640 1000.040 32.788 1.795 o
-9 7 28 4.148 3.326 4.548 351.074 o
-9 7 29 39.636 30.945 3.616 106.224 o
-9 7 30 18.907 20.360 2.873 199.171 o
-9 7 31 0.084 -0.271 1.712 3351.380 o
-9 8 1 13105.400 12908.900 168.451 0.022 o
-9 8 2 5.933 20.009 2.984 316.723 o
-9 8 3 3256.460 3159.730 50.039 0.294 o
-9 8 4 542.387 556.786 11.344 4.999 o
-9 8 5 2496.640 2563.480 41.522 0.452 o
-9 8 6 21178.700 21473.100 277.447 0.008 o
-9 8 7 10482.100 10619.400 154.932 0.032 o
-9 8 8 3170.610 3255.350 51.458 0.297 o
-9 8 9 1553.100 1623.080 28.012 0.998 o
-9 8 10 106.862 87.463 7.643 33.946 o
-9 8 11 3336.300 3285.350 52.348 0.279 o
-9 8 12 285.729 306.024 9.584 10.928 o
-9 8 13 477.806 429.550 18.767 5.458 o
-9 8 14 1522.340 1433.570 69.458 0.759 o
-9 8 15 1363.360 1316.670 39.941 1.145 o
-9 8 16 0.042 0.367 3.416 853.538 o
-9 8 17 2.502 6.032 3.337 533.749 o
-9 8 18 678.360 755.793 33.387 2.657 o
-9 8 19 779.677 802.356 20.500 2.812 o
-9 8 20 2978.110 3058.160 76.958 0.298 o
-9 8 21 561.136 583.272 16.676 4.448 o
-9 8 22 0.564 4.784 3.254 687.597 o
-9 8 23 2618.680 2730.620 47.019 0.407 o
-9 8 24 1062.540 1072.760 20.625 1.859 o
-9 8 25 59.123 46.871 4.011 71.429 o
-9 8 26 0.707 3.023 2.196 1271.740 o
-9 8 27 0.996 4.695 4.429 418.103 o
-9 8 28 0.886 -0.287 3.914 616.591 o
-9 8 29 43.239 41.066 4.468 87.536 o
-9 8 30 454.039 370.981 22.460 5.461 o
-9 9 1 2701.090 2682.750 49.164 0.395 o
-9 9 2 462.161 530.773 13.573 5.649 o
-9 9 3 1679.370 1707.480 46.586 0.801 o
-9 9 4 558.784 621.068 17.010 4.324 o
-9 9 5 0.094 2.463 3.800 625.452 o
-9 9 6 515.911 489.983 14.571 5.271 o
-9 9 7 4265.090 4343.510 77.195 0.170 o
-9 9 8 16.213 23.555 5.804 136.176 o
-9 9 9 336.509 373.715 13.370 8.293 o
-9 9 10 9442.430 9233.760 194.654 0.038 o
-9 9 11 295.484 316.997 11.971 9.987 o
-9 9 12 206.019 218.254 10.125 15.340 o
-9 9 13 47.286 47.931 4.542 79.008 o
-9 9 14 229.081 235.969 7.790 14.736 o
-9 9 15 1321.380 1270.430 29.092 1.309 o
-9 9 16 1782.440 1698.650 43.207 0.777 o
-9 9 17 1133.520 1216.940 32.505 1.492 o
-9 9 18 2416.380 2550.300 61.599 0.429 o
-9 9 19 729.377 799.126 20.373 2.984 o
-9 9 20 363.107 409.549 12.521 7.700 o
-9 9 21 237.463 244.718 9.538 13.591 o
-9 9 22 173.912 180.982 6.879 20.203 o
-9 9 23 984.069 978.911 19.235 2.109 o
-9 9 24 976.266 998.526 18.950 2.110 o
-9 9 25 569.110 541.550 17.234 4.494 o
-9 9 26 163.398 171.724 12.837 17.240 o
-9 9 27 12.559 17.694 4.354 202.577 o
-9 9 28 54.959 32.826 3.757 83.063 o
-9 9 29 301.257 256.722 31.040 5.730 o
-9 10 1 242.868 290.206 8.330 12.873 o
-9 10 2 1093.030 1170.410 21.747 1.720 o
-9 10 3 319.496 341.885 8.465 9.810 o
-9 10 4 520.130 574.185 13.466 4.977 o
-9 10 5 18.794 26.423 3.838 164.300 o
-9 10 6 1891.490 1747.740 40.360 0.736 o
-9 10 7 126.493 151.085 7.526 25.978 o
-9 10 8 2204.100 2253.800 67.932 0.478 o
-9 10 9 595.036 587.888 24.301 3.743 o
-9 10 10 1.208 4.138 3.039 730.803 o
-9 10 11 961.140 946.722 20.960 2.158 o
-9 10 12 354.930 345.252 15.100 7.908 o
-9 10 13 2.662 5.212 3.908 446.105 o
-9 10 14 292.276 286.111 12.247 10.375 o
-9 10 15 1118.110 1046.850 34.069 1.586 o
-9 10 16 2921.490 3023.920 203.594 0.148 o
-9 10 17 296.049 314.988 12.171 9.951 o
-9 10 18 163.768 173.100 8.235 20.518 o
-9 10 19 1400.910 1462.530 64.588 0.841 o
-9 10 20 335.543 364.029 11.329 8.757 o
-9 10 21 145.035 165.575 5.913 24.270 o
-9 10 22 268.958 273.950 10.658 11.621 o
-9 10 23 9.463 5.770 2.333 434.944 o
-9 10 24 169.603 162.983 4.944 22.395 o
-9 10 25 21.089 17.770 2.394 203.823 o
-9 10 26 5.606 9.647 3.536 368.679 o
-9 10 27 865.854 582.404 20.489 2.887 o
-9 11 1 33.937 26.577 3.378 124.250 o
-9 11 2 527.592 476.506 11.375 5.461 o
-9 11 3 991.619 1062.330 20.889 1.987 o
-9 11 4 106.550 138.041 6.988 30.373 o
-9 11 5 642.677 668.626 32.132 2.940 o
-9 11 6 83.481 150.390 11.974 25.532 o
-9 11 7 7.555 3.521 4.825 277.400 o
-9 11 8 13.428 13.220 2.948 267.860 o
-9 11 9 822.980 783.748 15.449 2.847 o
-9 11 10 230.287 221.880 6.721 15.363 o
-9 11 11 165.629 169.380 6.629 21.549 o
-9 11 12 7.010 3.804 2.884 479.642 o
-9 11 13 725.866 779.795 16.797 3.153 o
-9 11 14 857.581 1008.730 23.513 2.258 o
-9 11 15 53.725 46.575 4.242 75.149 o
-9 11 16 255.481 253.057 10.804 12.349 o
-9 11 17 218.568 173.620 18.512 11.544 o
-9 11 18 244.950 279.501 32.352 5.800 o
-9 11 19 103.413 114.662 6.991 33.005 o
-9 11 20 873.169 947.787 20.911 2.352 o
-9 11 21 0.829 0.654 2.355 1416.710 o
-9 11 22 171.218 178.215 5.492 21.268 o
-9 11 23 97.542 113.281 4.995 37.296 o
-9 11 24 3.742 2.333 1.917 945.280 o
-9 11 25 194.964 141.578 11.533 17.202 o
-9 12 1 503.075 489.140 14.933 5.354 o
-9 12 2 2067.500 2286.390 50.590 0.558 o
-9 12 3 885.165 848.573 21.455 2.430 o
-9 12 4 183.407 157.770 10.781 17.917 o
-9 12 5 501.727 613.863 38.467 3.047 o
-9 12 6 1267.710 1224.180 50.699 1.123 o
-9 12 7 2519.560 2710.310 74.360 0.374 o
-9 12 8 74.322 103.708 5.657 44.050 o
-9 12 9 244.705 246.303 8.203 13.695 o
-9 12 10 2551.040 2833.140 59.527 0.389 o
-9 12 11 0.695 7.803 3.224 599.031 o
-9 12 12 967.014 995.639 20.191 2.110 o
-9 12 13 134.641 111.073 4.674 30.374 o
-9 12 14 106.281 94.894 7.796 33.075 o
-9 12 15 442.762 486.517 16.932 5.716 o
-9 12 16 1133.880 1097.720 33.600 1.544 o
-9 12 17 559.309 591.280 18.694 4.301 o
-9 12 18 43.271 44.121 5.066 81.808 o
-9 12 19 74.369 82.700 4.954 49.449 o
-9 12 20 0.566 2.907 1.901 1562.570 o
-9 12 21 338.669 355.071 11.297 8.788 o
-9 12 22 32.003 28.434 3.403 126.391 o
-9 12 23 1276.990 995.829 120.439 0.500 o
-9 13 1 1433.500 1421.580 26.571 1.165 o
-9 13 2 71.149 90.364 6.113 46.344 o
-9 13 3 13560.500 14067.200 222.318 0.019 o
-9 13 4 198.822 227.958 10.345 15.351 o
-9 13 5 4.570 11.884 5.178 242.604 o
-9 13 6 185.998 230.191 10.377 15.927 o
-9 13 7 72.683 96.397 4.943 47.454 o
-9 13 8 5079.640 5379.680 122.899 0.112 o
-9 13 9 834.404 867.403 14.781 2.697 o
-9 13 10 69.005 76.531 4.395 54.600 o
-9 13 11 6252.560 6672.530 119.141 0.080 o
-9 13 12 107.835 131.394 5.677 32.323 o
-9 13 13 23.201 33.129 3.422 143.867 o
-9 13 14 0.409 3.800 3.387 690.330 o
-9 13 15 9.399 19.146 3.567 251.769 o
-9 13 16 2187.530 2192.860 70.282 0.479 o
-9 13 17 497.021 525.870 21.027 4.719 o
-9 13 18 212.409 189.105 5.640 17.673 o
-9 13 19 743.782 682.579 27.205 2.854 o
-9 13 20 23.598 23.838 2.949 166.116 o
-9 13 21 635.062 509.631 36.813 2.923 o
-9 13 22 390.197 307.497 12.588 8.075 o
-9 14 1 3152.570 3121.650 47.129 0.310 o
-9 14 2 1540.870 1502.530 24.593 1.066 o
-9 14 3 910.528 879.165 15.821 2.450 o
-9 14 4 2439.830 2643.630 40.691 0.457 o
-9 14 5 320.073 322.648 9.227 9.897 o
-9 14 6 182.265 164.995 6.147 20.560 o
-9 14 7 116.036 127.736 5.380 31.488 o
-9 14 8 2.124 8.023 2.906 588.595 o
-9 14 9 1538.100 1581.430 37.392 0.963 o
-9 14 10 16.929 26.245 2.829 194.583 o
-9 14 11 8.410 14.120 2.860 331.272 o
-9 14 12 1207.240 1252.300 31.237 1.409 o
-9 14 13 560.756 565.384 19.935 4.283 o
-9 14 14 805.770 799.513 25.834 2.568 o
-9 14 15 138.655 139.598 5.728 26.771 o
-9 14 16 398.489 387.028 10.099 7.640 o
-9 14 17 776.016 761.865 17.199 2.992 o
-9 14 18 14.363 14.601 2.270 275.828 o
-9 14 19 4.852 5.283 1.578 762.103 o
-9 14 20 110.437 100.058 5.796 34.774 o
-9 15 1 307.823 304.347 7.086 10.815 o
-9 15 2 45.739 55.739 3.358 82.555 o
-9 15 3 187.558 199.047 5.686 19.023 o
-9 15 4 1052.930 1144.100 19.111 1.836 o
-9 15 5 158.848 179.220 5.247 22.502 o
-9 15 6 94.613 94.707 4.937 40.580 o
-9 15 7 693.998 684.498 15.945 3.508 o
-9 15 8 6.036 6.857 2.716 482.462 o
-9 15 9 40.748 42.201 4.383 90.476 o
-9 15 10 1173.730 1211.370 40.198 1.344 o
-9 15 11 169.159 172.108 7.327 20.698 o
-9 15 12 416.382 387.525 12.318 7.111 o
-9 15 13 6.875 9.340 3.018 393.492 o
-9 15 14 31.075 37.058 3.499 117.766 o
-9 15 15 1588.420 1614.570 59.271 0.776 o
-9 15 16 283.085 300.493 7.442 11.537 o
-9 15 17 20.474 10.894 1.425 253.440 o
-9 16 1 159.063 142.195 4.211 25.022 o
-9 16 2 13.477 13.592 2.077 299.383 o
-9 16 3 166.341 169.131 5.529 22.117 o
-9 16 4 120.130 100.835 5.272 33.364 o
-9 16 5 61.708 54.991 3.077 69.365 o
-9 16 6 453.951 464.591 11.305 6.270 o
-9 16 7 1717.250 1686.120 33.069 0.861 o
-9 16 8 806.367 780.298 20.229 2.772 o
-9 16 9 9.121 9.218 2.366 397.751 o
-9 16 10 86.055 64.504 5.848 46.304 o
-9 16 11 186.586 153.015 6.011 20.770 o
-9 16 12 204.045 187.284 8.983 16.820 o
-9 16 13 40.180 33.382 2.308 112.011 o
-9 16 14 55.789 38.898 2.292 84.878 o
-9 17 1 0.758 0.279 2.321 1529.930 o
-9 17 2 273.270 263.722 11.941 11.274 o
-9 17 3 16.210 22.937 3.974 180.201 o
-9 17 4 2407.930 2164.360 58.739 0.472 o
-9 17 5 111.670 102.889 3.533 36.817 o
-9 17 6 27.501 19.275 2.428 166.976 o
-9 17 7 631.488 508.067 13.179 4.439 o
-9 17 8 60.980 48.932 5.016 65.160 o
-8 -11 4 4.190 0.931 1.428 1160.260 o
-8 -11 5 54.116 43.549 2.608 83.084 o
-8 -11 6 38.224 36.379 2.572 111.320 o
-8 -11 7 17.620 16.489 2.128 239.155 o
-8 -11 8 38.069 25.059 2.928 120.717 o
-8 -11 9 106.264 92.223 6.965 34.723 o
-8 -11 11 1.304 1.979 3.228 744.255 o
-8 -11 12 208.430 164.420 6.201 18.557 o
-8 -11 13 1314.320 943.901 44.550 1.276 o
-8 -10 1 156.702 170.076 5.040 23.292 o
-8 -10 2 29.486 41.613 3.562 115.745 o
-8 -10 3 24.673 28.883 3.380 146.516 o
-8 -10 4 1057.580 1112.850 24.167 1.783 o
-8 -10 5 300.187 311.328 9.618 10.459 o
-8 -10 6 2.381 1.509 3.050 738.209 o
-8 -10 7 111.570 128.293 6.189 31.328 o
-8 -10 8 66.660 69.576 5.220 55.139 o
-8 -10 9 0.048 5.604 7.551 167.363 o
-8 -10 10 3.822 7.421 3.229 477.791 o
-8 -10 11 9.434 10.526 3.156 324.640 o
-8 -10 12 69.398 63.852 5.863 53.157 o
-8 -10 13 971.759 929.190 26.378 2.044 o
-8 -10 14 21.294 16.109 3.945 173.207 o
-8 -10 15 225.510 198.250 6.790 16.217 o
-8 -10 16 5.022 14.391 3.413 346.409 o
-8 -10 17 56.584 57.831 19.481 20.013 o
-8 -10 18 462.195 702.891 26.072 3.974 o
-8 -9 1 57.258 61.456 3.611 68.635 o
-8 -9 2 52.175 60.866 3.733 72.475 o
-8 -9 3 1367.560 1406.440 24.819 1.240 o
-8 -9 4 768.760 805.635 13.742 3.036 o
-8 -9 5 334.630 329.386 7.532 9.741 o
-8 -9 6 41.617 36.859 2.913 102.821 o
-8 -9 7 0.715 1.477 2.561 1180.490 o
-8 -9 8 229.073 238.970 6.564 15.046 o
-8 -9 9 1077.400 1110.140 19.530 1.819 o
-8 -9 10 17.821 23.660 3.219 188.309 o
-8 -9 11 40.346 34.960 3.410 103.196 o
-8 -9 12 58.138 59.345 4.180 66.779 o
-8 -9 13 15.832 16.300 3.392 218.061 o
-8 -9 14 150.140 167.178 9.953 20.581 o
-8 -9 15 42.886 32.813 4.273 94.660 o
-8 -9 16 145.313 161.521 5.936 24.451 o
-8 -9 17 103.997 99.365 5.385 36.872 o
-8 -9 18 11.307 13.771 3.148 279.060 o
-8 -9 19 1617.080 1538.740 37.863 0.927 o
-8 -9 20 146.044 187.706 10.698 19.503 o
-8 -9 21 150.914 290.847 13.225 14.625 o
-8 -8 1 1.524 2.494 2.855 840.331 o
-8 -8 2 422.524 446.492 11.679 6.716 o
-8 -8 3 689.033 705.020 15.083 3.517 o
-8 -8 4 947.359 966.519 18.821 2.206 o
-8 -8 5 20.261 23.013 3.022 181.671 o
-8 -8 6 157.922 167.251 5.442 23.091 o
-8 -8 7 439.455 465.841 8.352 6.673 o
-8 -8 8 285.395 281.247 6.238 11.995 o
-8 -8 9 2927.090 2963.180 37.750 0.355 o
-8 -8 10 351.364 365.022 8.657 8.841 o
-8 -8 11 32.647 28.779 3.564 122.766 o
-8 -8 12 828.293 853.057 18.270 2.655 o
-8 -8 13 779.060 777.115 15.625 3.001 o
-8 -8 14 1682.520 1554.030 26.456 0.948 o
-8 -8 15 142.458 160.301 5.401 25.221 o
-8 -8 16 10.611 11.944 3.538 277.504 o
-8 -8 17 1979.640 1922.630 34.712 0.691 o
-8 -8 18 7.711 6.915 3.145 390.089 o
-8 -8 19 32.007 46.334 5.295 91.864 o
-8 -8 20 17.175 6.366 2.594 278.688 o
-8 -8 21 22.898 20.947 5.909 121.047 o
-8 -8 22 166.692 179.655 11.315 17.912 o
-8 -8 23 94.433 101.431 8.299 33.855 o
-8 -8 24 34.903 46.468 5.826 83.910 o
-8 -7 1 1506.720 1579.700 24.858 1.061 o
-8 -7 2 64.641 59.922 4.043 62.663 o
-8 -7 3 683.005 665.670 12.900 3.715 o
-8 -7 4 3044.040 3015.100 40.853 0.334 o
-8 -7 5 129.707 147.595 5.322 27.779 o
-8 -7 6 187.108 210.579 5.242 18.806 o
-8 -7 7 59.703 56.730 3.746 68.118 o
-8 -7 8 60.522 58.775 3.406 67.851 o
-8 -7 9 91.752 90.558 3.881 43.691 o
-8 -7 10 949.703 976.175 17.009 2.221 o
-8 -7 11 1338.160 1284.650 23.266 1.338 o
-8 -7 12 2.639 4.792 2.589 729.126 o
-8 -7 13 127.351 91.738 3.613 34.472 o
-8 -7 14 54.794 55.354 3.199 74.547 o
-8 -7 15 826.567 760.219 12.144 2.949 o
-8 -7 16 0.258 2.227 2.290 1414.270 o
-8 -7 17 137.919 140.502 3.932 28.085 o
-8 -7 18 1.572 2.925 2.325 1042.360 o
-8 -7 19 15.481 15.706 2.621 247.663 o
-8 -7 20 250.784 263.635 6.026 13.651 o
-8 -7 21 287.702 256.461 7.645 12.055 o
-8 -7 22 33.865 26.315 2.897 129.492 o
-8 -7 23 1216.640 1292.640 21.157 1.484 o
-8 -7 24 20.425 23.693 2.763 184.069 o
-8 -7 25 354.048 396.345 17.739 7.081 o
-8 -7 26 5.042 3.114 2.923 563.416 o
-8 -7 27 65.934 66.960 5.741 54.459 o
-8 -7 28 120.274 83.446 5.500 34.844 o
-8 -6 1 256.388 249.999 5.924 13.724 o
-8 -6 2 680.050 676.889 10.683 3.773 o
-8 -6 3 10.072 17.556 2.707 291.826 o
-8 -6 4 600.967 623.245 10.691 4.377 o
-8 -6 5 2834.570 2864.010 38.288 0.375 o
-8 -6 6 1012.160 1007.360 15.389 2.081 o
-8 -6 7 178.641 170.848 5.176 21.086 o
-8 -6 8 32.554 28.767 2.803 130.594 o
-8 -6 9 241.491 234.333 4.826 14.989 o
-8 -6 10 2371.340 2346.200 24.371 0.530 o
-8 -6 11 865.774 856.893 9.567 2.709 o
-8 -6 12 9.630 13.133 1.849 376.096 o
-8 -6 13 4306.020 4214.030 36.578 0.186 o
-8 -6 14 221.938 226.555 3.890 16.427 o
-8 -6 15 3.195 5.736 1.686 876.040 o
-8 -6 16 3204.190 3122.520 26.988 0.318 o
-8 -6 17 4.172 7.340 1.799 696.939 o
-8 -6 18 109.585 111.178 3.147 36.667 o
-8 -6 19 3927.890 4058.730 37.845 0.212 o
-8 -6 20 494.344 522.275 9.027 5.704 o
-8 -6 21 9.007 10.726 2.562 370.225 o
-8 -6 22 371.613 384.867 10.239 8.078 o
-8 -6 23 40.544 41.303 3.927 94.511 o
-8 -6 24 191.195 203.553 9.644 16.752 o
-8 -6 25 43.443 49.236 5.411 76.910 o
-8 -6 26 43.328 48.738 4.462 83.124 o
-8 -6 27 53.772 46.297 4.574 73.649 o
-8 -6 28 9.157 10.227 2.341 387.502 o
-8 -6 29 46.301 42.707 2.939 91.555 o
-8 -6 30 2.675 0.462 1.428 1633.680 o
-8 -5 1 1052.280 1099.750 13.213 1.942 o
-8 -5 2 5.897 6.585 2.295 547.367 o
-8 -5 3 3005.070 3095.910 30.798 0.342 o
-8 -5 4 12312.400 12078.600 122.702 0.025 o
-8 -5 5 1153.700 1134.020 14.896 1.730 o
-8 -5 6 8984.480 8834.640 89.946 0.046 o
-8 -5 7 1088.780 1095.220 13.657 1.877 o
-8 -5 8 84.655 88.926 3.407 47.156 o
-8 -5 9 31.370 37.184 2.314 127.017 o
-8 -5 10 5479.390 5403.190 44.701 0.119 o
-8 -5 11 2609.020 2624.470 21.910 0.449 o
-8 -5 12 1800.720 1709.700 15.584 0.874 o
-8 -5 13 99.069 92.943 2.753 42.342 o
-8 -5 14 847.952 838.519 9.287 2.797 o
-8 -5 15 120.755 113.639 3.158 33.914 o
-8 -5 16 172.321 177.983 3.820 21.886 o
-8 -5 17 1714.560 1734.250 16.361 0.913 o
-8 -5 18 508.815 501.330 6.470 5.792 o
-8 -5 19 409.298 410.536 5.842 7.672 o
-8 -5 20 495.327 498.696 7.006 5.920 o
-8 -5 21 28.973 30.172 2.687 139.683 o
-8 -5 22 808.389 831.744 12.558 2.881 o
-8 -5 23 406.680 394.104 11.951 7.245 o
-8 -5 24 37.161 32.681 3.725 108.162 o
-8 -5 25 1630.260 1735.780 36.338 0.876 o
-8 -5 26 703.855 735.519 17.970 3.282 o
-8 -5 27 1.383 4.219 2.955 740.919 o
-8 -5 28 560.590 632.698 14.528 4.423 o
-8 -5 29 6.038 6.867 2.784 473.879 o
-8 -5 30 512.105 530.794 17.676 4.889 o
-8 -5 31 19.829 19.099 3.660 179.645 o
-8 -4 1 459.713 488.870 9.596 6.205 o
-8 -4 2 445.072 443.166 6.928 6.844 o
-8 -4 3 4342.280 4166.540 36.007 0.185 o
-8 -4 4 1628.590 1600.380 15.703 1.009 o
-8 -4 5 4388.090 4311.920 39.153 0.179 o
-8 -4 6 16.461 27.448 2.192 206.329 o
-8 -4 7 7.167 21.830 2.858 294.370 o
-8 -4 8 296.676 316.234 4.651 11.308 o
-8 -4 9 342.860 365.567 5.055 9.417 o
-8 -4 10 351.080 373.768 5.025 9.150 o
-8 -4 11 3.629 10.189 1.688 656.352 o
-8 -4 12 4783.850 4618.980 36.904 0.155 o
-8 -4 13 995.456 939.946 10.382 2.248 o
-8 -4 14 416.416 418.707 5.636 7.510 o
-8 -4 15 1254.030 1340.900 12.527 1.473 o
-8 -4 16 94.184 104.558 2.831 41.983 o
-8 -4 17 6724.790 6807.240 52.590 0.080 o
-8 -4 18 3490.230 3507.080 29.263 0.268 o
-8 -4 19 260.788 252.494 4.354 13.784 o
-8 -4 20 1254.300 1262.130 13.880 1.512 o
-8 -4 21 469.233 474.469 9.026 6.219 o
-8 -4 22 414.308 423.985 8.533 7.282 o
-8 -4 23 1376.090 1421.120 23.221 1.238 o
-8 -4 24 989.795 1005.270 18.332 2.086 o
-8 -4 25 117.650 140.488 5.642 29.865 o
-8 -4 26 1182.550 1313.520 25.278 1.470 o
-8 -4 27 482.531 523.896 11.038 5.683 o
-8 -4 28 13.022 13.281 2.739 280.705 o
-8 -4 29 26.362 31.192 2.821 144.628 o
-8 -4 30 142.868 133.288 4.223 27.710 o
-8 -4 31 1568.000 1652.400 48.185 0.854 o
-8 -4 32 159.521 155.488 5.650 23.415 o
-8 -3 1 2372.490 2244.930 25.860 0.541 o
-8 -3 2 1112.760 1070.550 16.780 1.826 o
-8 -3 3 559.853 565.952 8.107 4.978 o
-8 -3 4 230.211 236.625 4.277 15.617 o
-8 -3 5 3977.250 3858.300 38.425 0.215 o
-8 -3 6 245.903 272.745 4.326 13.993 o
-8 -3 7 2.427 7.387 1.541 905.838 o
-8 -3 8 312.574 282.316 4.217 11.389 o
-8 -3 9 1041.060 982.270 9.822 2.108 o
-8 -3 10 5561.950 5292.170 40.663 0.119 o
-8 -3 11 514.629 494.416 6.104 5.783 o
-8 -3 12 456.584 434.002 5.445 6.836 o
-8 -3 13 111.434 129.181 3.656 33.852 o
-8 -3 14 101.375 125.329 2.917 37.125 o
-8 -3 15 1841.330 1832.430 15.914 0.821 o
-8 -3 16 2462.960 2377.000 20.775 0.509 o
-8 -3 17 6.714 10.689 1.876 483.201 o
-8 -3 18 252.485 236.512 4.196 14.534 o
-8 -3 19 152.050 151.058 3.261 25.786 o
-8 -3 20 714.862 699.362 8.522 3.602 o
-8 -3 21 1058.960 1086.900 14.669 1.926 o
-8 -3 22 7.213 11.407 2.519 404.907 o
-8 -3 23 79.407 76.385 4.545 49.612 o
-8 -3 24 26.606 25.104 3.122 149.979 o
-8 -3 25 136.892 145.128 5.020 27.175 o
-8 -3 26 143.290 143.657 5.220 26.279 o
-8 -3 27 7.122 8.113 2.949 408.432 o
-8 -3 28 319.988 324.845 8.300 10.030 o
-8 -3 29 126.077 136.668 7.139 27.368 o
-8 -3 30 14.301 12.646 4.885 188.633 o
-8 -3 31 21.021 17.584 2.978 192.722 o
-8 -3 32 333.690 352.359 10.910 8.980 o
-8 -3 33 13.857 7.662 3.109 286.847 o
-8 -2 1 1893.330 1946.980 21.297 0.759 o
-8 -2 2 1048.840 1079.810 11.362 1.983 o
-8 -2 3 334.113 295.698 5.100 10.482 o
-8 -2 4 536.727 575.931 7.685 5.142 o
-8 -2 5 1518.510 1597.810 15.246 1.089 o
-8 -2 6 1623.840 1553.990 14.730 1.031 o
-8 -2 7 6351.780 6278.870 49.688 0.090 o
-8 -2 8 809.590 867.627 8.358 2.888 o
-8 -2 9 2098.700 2063.840 16.807 0.664 o
-8 -2 10 48.898 48.322 1.863 88.775 o
-8 -2 11 4000.430 3992.320 28.838 0.212 o
-8 -2 12 64.035 74.649 2.161 62.829 o
-8 -2 13 5327.460 5190.610 36.839 0.127 o
-8 -2 14 424.243 426.903 5.093 7.360 o
-8 -2 15 3129.660 3137.750 23.893 0.328 o
-8 -2 16 2871.380 2854.400 23.212 0.383 o
-8 -2 17 232.499 235.610 3.772 15.620 o
-8 -2 18 105.309 108.857 2.646 38.414 o
-8 -2 19 377.400 378.884 5.106 8.559 o
-8 -2 20 306.008 312.025 5.412 11.000 o
-8 -2 21 126.729 126.154 3.995 30.979 o
-8 -2 22 771.110 755.443 10.960 3.186 o
-8 -2 23 156.405 144.553 4.080 25.267 o
-8 -2 24 911.253 936.059 13.201 2.419 o
-8 -2 25 690.469 718.469 11.622 3.593 o
-8 -2 26 29.686 36.186 3.029 126.364 o
-8 -2 27 68.513 77.751 3.725 56.169 o
-8 -2 28 424.868 452.428 10.038 6.807 o
-8 -2 29 190.346 242.186 8.838 16.120 o
-8 -2 30 145.796 148.113 6.471 24.770 o
-8 -2 31 48.833 40.614 3.589 86.436 o
-8 -2 32 32.895 34.586 3.049 120.592 o
-8 -2 33 5.869 4.982 2.097 616.235 o
-8 -1 1 1.994 11.008 1.854 711.676 o
-8 -1 2 6909.500 6717.920 61.601 0.077 o
-8 -1 3 433.514 439.862 6.416 7.055 o
-8 -1 4 873.945 948.867 10.347 2.541 o
-8 -1 5 2629.950 2685.490 21.758 0.440 o
-8 -1 6 157.951 143.755 3.007 25.606 o
-8 -1 7 1699.990 1350.130 13.482 1.053 o
-8 -1 8 41.260 38.506 1.577 108.553 o
-8 -1 9 516.364 534.127 5.786 5.583 o
-8 -1 10 2994.220 2840.560 21.543 0.367 o
-8 -1 11 14.499 25.936 1.553 237.475 o
-8 -1 12 399.830 458.168 5.704 7.457 o
-8 -1 13 711.907 629.973 6.934 3.823 o
-8 -1 14 1196.940 1161.620 10.402 1.678 o
-8 -1 15 5575.530 5440.670 40.247 0.116 o
-8 -1 16 57.445 74.565 2.206 67.306 o
-8 -1 17 122.373 104.662 2.637 34.870 o
-8 -1 18 161.227 155.437 3.732 24.228 o
-8 -1 19 1511.640 1508.290 17.570 1.120 o
-8 -1 20 12.293 13.193 2.288 309.777 o
-8 -1 21 3666.270 3690.320 39.934 0.241 o
-8 -1 22 46.541 57.868 3.234 81.119 o
-8 -1 23 227.942 231.516 6.591 15.278 o
-8 -1 24 48.216 58.673 3.521 77.851 o
-8 -1 25 98.282 94.457 4.313 40.503 o
-8 -1 26 160.318 159.507 5.030 23.473 o
-8 -1 27 3.738 6.549 2.377 644.525 o
-8 -1 28 215.718 219.186 6.160 16.391 o
-8 -1 29 7.731 6.213 2.632 449.244 o
-8 -1 30 152.045 146.288 5.646 24.751 o
-8 -1 31 36.401 34.922 3.626 108.347 o
-8 -1 32 33.608 35.845 4.727 102.337 o
-8 -1 33 127.601 147.871 8.162 25.396 o
-8 -1 34 18.162 10.649 2.696 243.921 o
-8 0 1 198.502 192.535 4.884 18.761 o
-8 0 2 2797.260 2958.160 30.433 0.381 o
-8 0 3 926.278 1025.580 12.116 2.289 o
-8 0 4 7.833 16.151 1.887 380.072 o
-8 0 5 7770.350 7432.210 67.755 0.063 o
-8 0 6 2086.340 2052.040 17.918 0.669 o
-8 0 7 78.911 77.744 2.307 53.507 o
-8 0 8 994.949 883.530 8.464 2.334 o
-8 0 9 341.770 342.783 4.253 9.773 o
-8 0 10 11124.800 11082.800 105.991 0.031 o
-8 0 11 389.719 320.818 4.654 8.923 o
-8 0 12 935.393 988.666 11.995 2.312 o
-8 0 13 9925.820 9667.730 80.014 0.039 o
-8 0 14 268.131 289.384 4.186 12.781 o
-8 0 15 1451.680 1492.090 17.912 1.173 o
-8 0 16 1134.620 1102.980 11.627 1.811 o
-8 0 17 159.823 152.086 3.588 24.643 o
-8 0 18 2889.910 2811.860 29.519 0.379 o
-8 0 19 5137.870 5217.120 50.323 0.130 o
-8 0 20 2204.030 2142.240 24.603 0.604 o
-8 0 21 647.237 675.734 9.981 3.971 o
-8 0 22 164.771 149.109 4.642 23.758 o
-8 0 23 312.839 328.414 7.142 10.347 o
-8 0 24 1125.120 1125.390 15.245 1.778 o
-8 0 25 90.155 91.928 3.562 44.444 o
-8 0 26 248.395 252.277 5.844 14.034 o
-8 0 27 37.472 33.616 3.349 109.829 o
-8 0 28 1262.760 1304.620 19.148 1.440 o
-8 0 29 82.225 85.244 3.439 48.764 o
-8 0 30 17.861 15.865 2.815 222.075 o
-8 0 31 11.858 16.765 2.808 271.433 o
-8 0 32 21.441 28.070 2.672 170.598 o
-8 0 33 148.097 153.431 9.155 22.024 o
-8 0 34 441.116 324.162 20.749 6.025 o
-8 1 1 3289.760 3425.460 46.594 0.281 o
-8 1 2 564.428 573.371 9.135 4.871 o
-8 1 3 1627.790 1530.640 22.236 1.008 o
-8 1 4 58.165 53.789 3.044 72.819 o
-8 1 5 88.689 90.230 3.757 44.953 o
-8 1 6 9859.260 9768.250 126.784 0.038 o
-8 1 7 1849.680 1897.380 24.256 0.781 o
-8 1 8 113.869 116.344 3.278 34.998 o
-8 1 9 121.243 112.541 2.819 34.155 o
-8 1 10 1311.420 1385.910 15.586 1.367 o
-8 1 11 2703.910 2482.740 28.892 0.438 o
-8 1 12 1170.120 989.810 11.581 1.846 o
-8 1 13 1118.470 1061.910 11.956 1.870 o
-8 1 14 1387.140 1180.960 12.493 1.412 o
-8 1 15 198.384 199.692 3.925 18.802 o
-8 1 16 490.364 461.717 6.618 6.194 o
-8 1 17 207.956 204.948 3.904 17.959 o
-8 1 18 867.613 872.155 12.510 2.635 o
-8 1 19 1288.100 1307.460 19.946 1.404 o
-8 1 20 172.154 185.255 4.583 21.276 o
-8 1 21 857.224 887.222 12.594 2.642 o
-8 1 22 186.811 188.534 6.857 18.942 o
-8 1 23 117.595 109.286 4.360 33.995 o
-8 1 24 2.348 -0.047 2.076 1325.240 o
-8 1 25 1846.630 1880.910 28.558 0.773 o
-8 1 26 775.352 790.073 12.191 3.077 o
-8 1 27 111.648 121.492 4.864 33.448 o
-8 1 28 327.217 329.265 7.243 9.960 o
-8 1 29 263.127 266.676 5.995 13.102 o
-8 1 30 327.622 348.675 7.652 9.663 o
-8 1 31 0.291 0.645 2.258 1709.080 o
-8 1 32 6.476 14.242 2.137 417.713 o
-8 1 33 412.238 414.284 12.609 6.952 o
-8 1 34 105.763 80.400 5.703 38.274 o
-8 2 1 362.321 338.138 8.506 8.911 o
-8 2 2 8695.410 8780.290 118.289 0.047 o
-8 2 3 2758.910 2875.400 47.231 0.374 o
-8 2 4 428.518 333.765 9.526 7.651 o
-8 2 5 1771.550 1866.390 52.388 0.703 o
-8 2 6 220.158 224.548 6.840 15.779 o
-8 2 7 2136.200 1824.110 22.522 0.684 o
-8 2 8 597.687 592.825 7.941 4.602 o
-8 2 9 40.442 46.269 2.166 100.990 o
-8 2 10 105.128 84.381 2.776 41.776 o
-8 2 11 1123.120 1217.660 15.901 1.704 o
-8 2 12 1093.420 1038.060 14.855 1.907 o
-8 2 13 328.184 312.209 6.664 10.229 o
-8 2 14 60.847 73.257 2.697 64.357 o
-8 2 15 438.945 435.327 7.134 6.965 o
-8 2 16 187.012 207.336 5.736 18.742 o
-8 2 17 2089.310 2180.960 33.580 0.614 o
-8 2 18 967.461 955.468 16.445 2.214 o
-8 2 19 185.203 151.918 4.935 21.452 o
-8 2 20 1433.440 1270.400 19.065 1.282 o
-8 2 21 342.110 360.202 7.939 9.175 o
-8 2 22 558.037 529.875 10.993 5.001 o
-8 2 23 1058.350 1083.510 18.364 1.887 o
-8 2 24 17.209 11.864 3.043 235.662 o
-8 2 25 30.406 29.423 2.903 134.459 o
-8 2 26 456.186 462.716 8.855 6.450 o
-8 2 27 25.853 25.101 2.986 154.477 o
-8 2 28 95.711 90.064 3.827 42.585 o
-8 2 29 48.043 46.841 3.284 85.264 o
-8 2 30 69.776 63.626 3.412 60.115 o
-8 2 31 184.301 189.247 4.949 19.936 o
-8 2 32 97.531 113.136 5.257 36.953 o
-8 2 33 44.098 44.819 3.955 87.506 o
-8 2 34 317.055 300.206 12.900 9.476 o
-8 3 1 189.929 243.648 8.278 16.350 o
-8 3 2 962.919 973.687 27.575 1.994 o
-8 3 3 1119.750 1062.470 29.250 1.652 o
-8 3 4 336.925 394.410 15.124 7.801 o
-8 3 5 101.139 109.266 17.212 18.660 o
-8 3 6 166.007 260.515 25.836 8.585 o
-8 3 7 98.476 99.924 4.824 38.984 o
-8 3 8 3997.380 3997.280 47.873 0.205 o
-8 3 9 541.548 601.013 8.320 4.976 o
-8 3 10 619.537 638.400 8.308 4.295 o
-8 3 11 256.251 218.433 4.367 14.752 o
-8 3 12 1470.410 1493.380 17.820 1.157 o
-8 3 13 105.569 102.875 3.342 38.521 o
-8 3 14 131.714 119.645 3.940 30.719 o
-8 3 15 612.920 673.455 10.179 4.168 o
-8 3 16 118.454 108.738 4.583 33.654 o
-8 3 17 3157.450 3218.430 42.523 0.308 o
-8 3 18 301.612 306.925 6.940 10.978 o
-8 3 19 214.328 242.458 6.078 15.853 o
-8 3 20 535.896 524.383 9.780 5.271 o
-8 3 21 433.843 432.183 10.076 6.819 o
-8 3 22 124.583 128.473 6.232 29.124 o
-8 3 23 1.079 3.905 2.905 796.514 o
-8 3 24 470.580 521.828 13.843 5.589 o
-8 3 25 1240.390 1273.810 32.181 1.353 o
-8 3 26 137.401 125.121 5.118 28.460 o
-8 3 27 358.874 373.933 8.178 8.667 o
-8 3 28 753.889 762.077 14.706 3.145 o
-8 3 29 25.306 25.790 3.264 151.227 o
-8 3 30 564.993 607.303 10.813 4.668 o
-8 3 31 67.085 60.902 3.183 63.184 o
-8 3 32 224.679 232.035 7.483 15.143 o
-8 3 33 309.957 305.777 8.691 10.458 o
-8 3 34 290.261 236.670 10.538 11.573 o
-8 4 1 6.432 12.419 4.860 242.866 o
-8 4 2 94.689 89.001 7.506 36.645 o
-8 4 3 37.217 45.899 6.092 79.737 o
-8 4 4 1047.550 1139.690 41.971 1.476 o
-8 4 5 2.754 23.922 13.357 51.186 o
-8 4 6 12629.000 12417.700 278.327 0.021 o
-8 4 7 196.663 234.040 5.878 17.169 o
-8 4 8 87.450 78.199 3.417 48.125 o
-8 4 9 3138.280 2709.030 39.222 0.343 o
-8 4 10 221.471 207.883 5.002 16.731 o
-8 4 11 4443.140 4356.880 46.114 0.173 o
-8 4 12 50.102 60.398 2.596 78.567 o
-8 4 13 106.913 87.978 3.128 40.386 o
-8 4 14 8703.390 8742.960 100.148 0.048 o
-8 4 15 111.361 118.982 4.350 34.293 o
-8 4 16 261.626 265.126 6.464 13.092 o
-8 4 17 26.631 33.651 3.270 135.006 o
-8 4 18 4.951 9.682 3.369 398.743 o
-8 4 19 14113.300 14358.600 249.817 0.018 o
-8 4 20 548.902 546.356 10.859 5.015 o
-8 4 21 1590.330 1778.660 30.173 0.918 o
-8 4 22 1844.460 1852.320 34.444 0.758 o
-8 4 23 264.598 273.433 8.804 12.273 o
-8 4 24 1235.230 1283.990 25.064 1.430 o
-8 4 25 3130.170 3114.790 40.173 0.318 o
-8 4 26 2458.720 2425.680 42.983 0.471 o
-8 4 27 506.547 480.161 14.580 5.392 o
-8 4 28 307.777 332.587 15.006 8.854 o
-8 4 29 3286.360 3285.470 80.702 0.257 o
-8 4 30 15.314 25.912 3.383 191.858 o
-8 4 31 65.634 59.793 4.827 59.565 o
-8 4 32 9.829 7.677 2.647 378.426 o
-8 4 33 535.608 494.988 15.944 4.985 o
-8 5 1 804.151 699.789 33.476 2.418 o
-8 5 2 709.371 826.116 36.483 2.369 o
-8 5 3 9.090 12.885 4.062 260.407 o
-8 5 4 13020.500 13180.300 295.719 0.019 o
-8 5 5 1712.350 1580.340 41.532 0.845 o
-8 5 6 3064.640 3054.360 64.626 0.305 o
-8 5 7 23670.500 23580.000 333.752 0.007 o
-8 5 8 1737.090 1796.610 25.529 0.855 o
-8 5 9 219.381 199.006 5.254 17.050 o
-8 5 10 94.403 116.844 3.304 39.673 o
-8 5 11 444.205 422.876 6.824 6.999 o
-8 5 12 8651.440 8711.730 107.051 0.048 o
-8 5 13 53.463 65.824 3.371 70.681 o
-8 5 14 259.757 253.671 6.648 13.349 o
-8 5 15 11622.500 11569.000 178.277 0.027 o
-8 5 16 4714.470 4727.690 71.212 0.147 o
-8 5 17 1378.610 1280.480 27.796 1.263 o
-8 5 18 1060.860 1162.140 27.271 1.695 o
-8 5 19 11.793 49.255 14.513 38.640 o
-8 5 20 10379.200 10963.800 203.121 0.030 o
-8 5 21 89.431 124.152 7.146 34.605 o
-8 5 22 7954.000 7769.370 168.203 0.052 o
-8 5 23 75.114 84.766 5.899 46.467 o
-8 5 24 158.322 164.593 6.552 22.508 o
-8 5 25 30.258 32.210 3.681 123.056 o
-8 5 26 177.405 177.645 11.636 17.105 o
-8 5 27 936.751 991.005 32.966 1.902 o
-8 5 28 1566.720 1711.820 63.853 0.735 o
-8 5 29 348.254 367.230 13.775 8.077 o
-8 5 30 551.606 563.406 14.316 4.729 o
-8 5 31 267.430 242.274 6.582 13.286 o
-8 5 32 334.394 313.007 8.326 9.822 o
-8 5 33 45.231 32.096 2.880 101.035 o
-8 6 1 282.632 351.947 11.140 10.065 o
-8 6 2 708.535 804.582 19.482 3.079 o
-8 6 3 274.980 329.172 10.592 10.674 o
-8 6 4 968.082 1028.020 23.642 2.014 o
-8 6 5 186.146 240.173 7.232 17.113 o
-8 6 6 203.545 171.660 5.389 18.971 o
-8 6 7 13458.600 13964.000 156.850 0.020 o
-8 6 8 8604.720 8511.850 104.413 0.049 o
-8 6 9 4253.460 4145.990 53.120 0.185 o
-8 6 10 1382.090 1510.770 23.591 1.191 o
-8 6 11 617.165 606.600 12.121 4.269 o
-8 6 12 134.103 113.662 4.022 30.763 o
-8 6 13 4043.650 4135.390 57.800 0.195 o
-8 6 14 0.897 2.624 2.628 1011.670 o
-8 6 15 193.863 182.703 6.847 18.652 o
-8 6 16 1457.800 1457.360 42.203 1.012 o
-8 6 17 0.220 4.986 4.646 400.992 o
-8 6 18 1787.950 1818.350 69.914 0.615 o
-8 6 19 199.059 207.882 16.919 12.404 o
-8 6 20 493.829 497.168 17.508 5.171 o
-8 6 21 355.582 373.847 11.959 8.199 o
-8 6 22 648.367 631.839 21.045 3.596 o
-8 6 23 729.586 754.282 19.027 3.110 o
-8 6 24 270.635 294.700 12.588 10.730 o
-8 6 25 31.591 30.688 4.293 115.075 o
-8 6 26 959.667 955.175 19.217 2.184 o
-8 6 27 9.283 7.774 5.413 210.615 o
-8 6 28 3.342 4.656 4.202 394.916 o
-8 6 29 10.554 9.036 4.174 258.829 o
-8 6 30 635.814 630.515 18.251 3.805 o
-8 6 31 56.139 46.512 2.746 78.975 o
-8 6 32 393.011 363.813 26.953 5.337 o
-8 7 1 2073.000 2165.060 33.580 0.622 o
-8 7 2 34.672 52.954 3.584 96.876 o
-8 7 3 1813.790 1885.160 31.107 0.777 o
-8 7 4 10070.900 9962.050 121.115 0.036 o
-8 7 5 794.286 817.582 13.554 2.930 o
-8 7 6 13815.700 13992.000 170.643 0.019 o
-8 7 7 638.243 721.344 12.505 3.814 o
-8 7 8 88.872 98.299 5.443 40.850 o
-8 7 9 7330.940 7600.130 112.526 0.063 o
-8 7 10 0.331 4.152 2.801 902.278 o
-8 7 11 2182.640 2375.500 38.982 0.548 o
-8 7 12 77.017 80.485 5.238 48.166 o
-8 7 13 206.535 250.874 33.151 6.022 o
-8 7 14 274.202 257.875 14.029 10.690 o
-8 7 15 66.984 64.760 4.528 58.353 o
-8 7 16 134.180 111.214 5.699 29.507 o
-8 7 17 116.175 97.322 6.869 32.411 o
-8 7 18 0.111 -1.508 3.375 886.299 o
-8 7 19 94.458 99.143 6.480 37.428 o
-8 7 20 48.077 47.681 5.965 70.313 o
-8 7 21 14.567 8.112 3.637 251.893 o
-8 7 22 1071.170 1183.230 32.888 1.579 o
-8 7 23 0.383 9.423 3.691 486.410 o
-8 7 24 797.677 875.761 20.728 2.644 o
-8 7 25 1.041 2.790 2.763 916.059 o
-8 7 26 24.142 25.195 2.963 161.004 o
-8 7 27 29.539 38.957 5.056 103.060 o
-8 7 28 0.884 0.781 4.769 416.182 o
-8 7 29 30.091 25.132 3.880 129.662 o
-8 7 30 170.336 151.868 6.429 22.044 o
-8 7 31 66.644 52.019 4.646 61.898 o
-8 7 32 46.648 29.775 3.459 97.122 o
-8 8 1 110.000 91.789 6.285 35.047 o
-8 8 2 380.337 406.287 8.653 7.938 o
-8 8 3 1306.910 1370.730 28.036 1.285 o
-8 8 4 27.116 25.282 3.586 141.606 o
-8 8 5 4.651 9.032 3.242 428.142 o
-8 8 6 314.177 363.781 10.577 9.325 o
-8 8 7 4518.710 4410.060 70.923 0.161 o
-8 8 8 2331.960 2487.220 53.367 0.469 o
-8 8 9 3292.960 3386.620 110.507 0.221 o
-8 8 10 5.000 31.366 10.056 77.780 o
-8 8 11 1473.880 1479.240 35.067 1.052 o
-8 8 12 1490.390 1523.090 39.575 0.993 o
-8 8 13 938.667 1035.520 28.839 1.955 o
-8 8 14 210.852 212.851 12.755 13.984 o
-8 8 15 2850.620 2823.440 152.400 0.209 o
-8 8 16 3.017 5.668 3.133 557.915 o
-8 8 17 219.015 223.051 13.748 13.009 o
-8 8 18 128.384 127.706 12.239 21.835 o
-8 8 19 844.048 867.745 61.222 1.390 o
-8 8 20 798.808 752.511 32.073 2.423 o
-8 8 21 586.322 582.973 19.456 4.119 o
-8 8 22 642.660 678.993 19.992 3.570 o
-8 8 23 131.567 137.116 6.619 27.108 o
-8 8 24 58.810 50.800 3.921 70.454 o
-8 8 25 411.986 402.179 10.393 7.291 o
-8 8 26 43.376 37.233 3.605 95.534 o
-8 8 27 309.578 298.007 9.800 10.351 o
-8 8 28 16.011 19.999 3.476 202.399 o
-8 8 29 523.048 493.889 37.743 3.216 o
-8 8 30 600.617 511.962 59.613 1.831 o
-8 8 31 80.943 52.087 2.886 58.156 o
-8 9 1 120.963 100.430 4.529 34.044 o
-8 9 2 8019.870 8092.990 102.891 0.055 o
-8 9 3 499.525 521.595 10.845 5.546 o
-8 9 4 1112.370 1164.930 22.975 1.681 o
-8 9 5 1208.890 1085.480 20.047 1.636 o
-8 9 6 1413.650 1434.260 24.895 1.188 o
-8 9 7 10403.900 10402.900 176.699 0.032 o
-8 9 8 20234.000 19671.000 320.975 0.009 o
-8 9 9 102.900 103.624 7.718 33.017 o
-8 9 10 3521.110 3588.160 56.667 0.247 o
-8 9 11 4328.340 4323.020 113.027 0.151 o
-8 9 12 498.480 539.591 14.976 5.178 o
-8 9 13 12401.800 12654.000 280.729 0.021 o
-8 9 14 0.297 4.367 5.283 324.839 o
-8 9 15 2494.820 2485.310 82.199 0.375 o
-8 9 16 1020.400 1103.890 48.890 1.394 o
-8 9 17 74.960 68.420 6.425 48.138 o
-8 9 18 464.011 479.788 17.865 5.456 o
-8 9 19 114.966 127.452 14.021 20.870 o
-8 9 20 152.339 156.815 9.784 20.967 o
-8 9 21 2202.370 2228.050 44.944 0.547 o
-8 9 22 54.202 48.070 3.926 75.482 o
-8 9 23 132.056 141.845 5.621 27.608 o
-8 9 24 196.121 204.625 6.405 17.944 o
-8 9 25 347.598 351.436 10.160 8.834 o
-8 9 26 997.217 1069.690 23.000 1.936 o
-8 9 27 306.581 292.011 8.092 10.847 o
-8 9 28 78.029 75.581 5.099 49.063 o
-8 9 29 504.460 465.624 18.868 5.084 o
-8 9 30 106.877 71.850 4.667 40.762 o
-8 10 1 2027.620 2096.150 47.362 0.605 o
-8 10 2 757.897 844.479 15.604 2.958 o
-8 10 3 491.392 474.260 17.340 5.300 o
-8 10 4 52.147 41.936 3.403 82.881 o
-8 10 5 8.885 13.565 3.856 270.216 o
-8 10 6 1537.510 1544.030 35.495 0.987 o
-8 10 7 503.102 489.744 29.455 4.002 o
-8 10 8 123.529 90.109 12.528 23.674 o
-8 10 9 5.316 13.547 4.542 266.993 o
-8 10 10 1793.660 1851.670 56.732 0.676 o
-8 10 11 360.987 331.139 13.901 8.143 o
-8 10 12 487.563 498.195 12.119 5.680 o
-8 10 13 32.377 37.991 3.952 110.008 o
-8 10 14 25.335 33.800 3.742 132.514 o
-8 10 15 47.761 45.881 5.174 75.926 o
-8 10 16 13.660 12.039 4.072 224.635 o
-8 10 17 1835.170 1923.020 111.510 0.410 o
-8 10 18 1722.990 1689.970 99.933 0.491 o
-8 10 19 59.487 57.500 5.501 61.377 o
-8 10 20 2.652 8.760 4.789 308.358 o
-8 10 21 184.917 177.682 6.276 19.770 o
-8 10 22 27.104 29.584 2.791 145.167 o
-8 10 23 201.260 208.103 9.851 15.970 o
-8 10 24 253.539 308.885 9.276 11.929 o
-8 10 25 66.808 58.063 4.487 60.499 o
-8 10 26 398.618 373.522 10.305 7.719 o
-8 10 27 260.215 175.600 8.473 14.462 o
-8 10 28 116.647 105.661 6.810 31.648 o
-8 11 1 1367.180 1220.520 25.607 1.321 o
-8 11 2 333.184 414.648 11.004 8.382 o
-8 11 3 3450.910 3617.650 72.113 0.240 o
-8 11 4 2363.980 2217.610 47.850 0.503 o
-8 11 5 1053.020 1006.990 24.818 1.864 o
-8 11 6 651.174 507.713 30.521 3.271 o
-8 11 7 1346.790 1182.780 36.355 1.250 o
-8 11 8 9.699 7.437 3.561 316.392 o
-8 11 9 31.417 15.938 3.976 137.095 o
-8 11 10 374.524 383.266 14.090 7.491 o
-8 11 11 231.988 273.785 8.208 13.651 o
-8 11 12 665.350 708.976 16.070 3.577 o
-8 11 13 189.036 192.462 7.195 18.484 o
-8 11 14 149.092 146.966 5.926 24.860 o
-8 11 15 682.643 766.357 25.285 2.999 o
-8 11 16 63.222 56.227 5.877 58.112 o
-8 11 17 2150.210 2244.880 54.500 0.531 o
-8 11 18 47.181 44.476 6.033 71.889 o
-8 11 19 34.621 39.926 4.318 101.238 o
-8 11 20 389.578 413.970 11.909 7.353 o
-8 11 21 35.639 36.735 2.732 114.986 o
-8 11 22 114.585 110.894 5.050 33.719 o
-8 11 23 35.843 41.574 8.221 66.788 o
-8 11 24 39.589 33.239 3.242 107.154 o
-8 11 25 843.523 726.010 70.573 1.233 o
-8 11 26 107.007 89.169 5.611 37.036 o
-8 11 27 221.236 166.632 8.155 16.813 o
-8 12 1 472.245 507.244 21.421 4.918 o
-8 12 2 136.061 80.082 4.793 32.795 o
-8 12 3 72.560 61.488 4.177 57.201 o
-8 12 4 100.007 99.273 4.855 38.626 o
-8 12 5 334.073 368.676 16.828 7.720 o
-8 12 6 15.795 15.250 2.742 243.059 o
-8 12 7 107.893 104.815 5.315 35.454 o
-8 12 8 1182.470 1247.450 28.511 1.471 o
-8 12 9 773.194 813.082 21.227 2.792 o
-8 12 10 1300.460 1354.360 45.150 1.121 o
-8 12 11 43.799 49.256 3.778 86.253 o
-8 12 12 164.247 225.729 6.794 19.263 o
-8 12 13 1889.760 2019.960 36.737 0.699 o
-8 12 14 166.957 186.615 10.837 18.008 o
-8 12 15 25.480 25.645 4.994 124.636 o
-8 12 16 494.171 508.116 17.317 5.142 o
-8 12 17 150.162 167.333 7.884 22.221 o
-8 12 18 526.110 576.080 19.900 4.463 o
-8 12 19 33.959 29.914 3.807 116.191 o
-8 12 20 57.719 56.039 3.268 71.532 o
-8 12 21 717.656 704.933 20.990 3.169 o
-8 12 22 203.601 187.679 6.938 17.787 o
-8 12 23 164.345 167.085 9.297 19.966 o
-8 12 24 33.158 33.771 4.565 106.408 o
-8 12 25 32.518 19.046 2.751 145.168 o
-8 13 1 234.610 230.076 8.180 14.488 o
-8 13 2 328.116 318.546 8.723 9.841 o
-8 13 3 5446.380 5717.710 136.851 0.097 o
-8 13 4 237.167 241.533 7.759 14.253 o
-8 13 5 209.395 215.760 7.304 16.439 o
-8 13 6 510.259 529.228 12.013 5.338 o
-8 13 7 1.034 5.691 3.225 637.882 o
-8 13 8 1980.480 2061.740 30.439 0.678 o
-8 13 9 4164.810 4625.260 62.893 0.175 o
-8 13 10 2527.170 2724.790 49.954 0.418 o
-8 13 11 1737.460 1756.170 28.703 0.852 o
-8 13 12 605.355 684.377 19.681 3.746 o
-8 13 13 0.036 4.805 3.005 813.962 o
-8 13 14 3850.040 4046.400 99.571 0.184 o
-8 13 15 1492.890 1559.590 38.939 0.985 o
-8 13 16 1952.230 2015.440 48.968 0.634 o
-8 13 17 1970.750 2046.920 59.010 0.585 o
-8 13 18 742.546 774.358 25.186 2.803 o
-8 13 19 78.279 88.118 3.624 49.472 o
-8 13 20 73.318 81.525 3.206 53.888 o
-8 13 21 188.531 124.776 5.016 22.377 o
-8 13 22 690.655 682.534 25.476 3.105 o
-8 13 23 207.579 154.816 7.755 18.228 o
-8 14 1 4877.110 5305.490 77.673 0.131 o
-8 14 2 320.156 340.297 8.468 9.813 o
-8 14 3 124.601 144.582 5.481 28.612 o
-8 14 4 7846.550 8098.600 118.950 0.056 o
-8 14 5 134.292 135.719 5.479 27.844 o
-8 14 6 46.911 64.017 4.730 71.248 o
-8 14 7 842.384 1004.490 18.060 2.420 o
-8 14 8 81.545 95.183 5.229 43.964 o
-8 14 9 3719.730 3860.790 57.659 0.223 o
-8 14 10 1161.070 1287.570 24.883 1.515 o
-8 14 11 307.724 313.489 8.618 10.429 o
-8 14 12 2.235 8.170 2.797 600.605 o
-8 14 13 155.649 151.709 6.828 23.233 o
-8 14 14 36.912 53.230 5.963 77.460 o
-8 14 15 3172.260 3261.250 62.769 0.286 o
-8 14 16 1073.070 1118.010 25.553 1.735 o
-8 14 17 23.003 33.727 4.106 133.891 o
-8 14 18 388.684 376.372 9.610 7.940 o
-8 14 19 466.092 399.473 9.420 6.673 o
-8 14 20 363.315 364.319 15.134 7.626 o
-8 14 21 113.482 82.136 5.163 36.976 o
-8 15 1 1170.160 1205.750 20.178 1.606 o
-8 15 2 776.090 824.980 17.260 2.884 o
-8 15 3 69.375 88.549 4.620 51.108 o
-8 15 4 387.395 396.752 9.810 7.772 o
-8 15 5 72.880 76.404 4.161 53.339 o
-8 15 6 56.646 53.677 4.333 69.393 o
-8 15 7 85.432 86.245 4.920 44.759 o
-8 15 8 16.653 23.199 3.406 191.401 o
-8 15 9 4.058 4.277 3.442 490.142 o
-8 15 10 182.797 190.601 6.726 19.223 o
-8 15 11 59.318 55.376 3.707 69.053 o
-8 15 12 208.874 209.670 8.774 16.027 o
-8 15 13 867.537 877.745 30.476 2.193 o
-8 15 14 346.828 363.249 12.024 8.437 o
-8 15 15 105.983 98.250 5.314 36.635 o
-8 15 16 296.119 274.865 8.885 11.232 o
-8 15 17 0.435 0.995 1.520 2792.240 o
-8 16 1 1022.850 1040.600 19.226 1.976 o
-8 16 2 12.769 16.445 2.590 271.822 o
-8 16 3 121.827 136.677 5.595 29.547 o
-8 16 4 200.705 194.498 6.680 17.863 o
-8 16 5 470.834 480.144 11.905 5.953 o
-8 16 6 146.658 133.298 6.520 25.506 o
-8 16 7 487.304 491.766 14.497 5.518 o
-8 16 8 288.338 309.016 10.596 10.586 o
-8 16 9 112.988 114.919 6.879 31.385 o
-8 16 10 238.293 164.678 7.458 16.193 o
-8 16 11 553.007 571.469 22.562 4.117 o
-8 16 12 219.905 227.939 6.765 15.727 o
-8 16 13 417.372 392.399 12.341 7.062 o
-8 16 14 328.249 288.881 9.893 9.983 o
-8 16 15 50.056 27.540 2.909 97.001 o
-8 17 1 1707.370 1843.930 43.971 0.775 o
-8 17 2 109.141 120.117 5.734 33.080 o
-8 17 3 74.789 88.890 4.877 48.230 o
-8 17 4 138.305 144.214 7.925 24.601 o
-8 17 5 8.266 8.176 1.945 467.803 o
-8 17 6 171.312 148.200 8.477 20.756 o
-8 17 7 16.638 24.751 3.584 183.193 o
-8 17 8 384.079 301.957 12.630 8.219 o
-8 17 9 908.335 718.885 25.276 2.429 o
-8 17 10 7.699 5.794 2.028 521.807 o
-8 18 1 219.276 179.680 7.699 16.747 o
-7 -12 2 108.602 84.302 5.435 37.503 o
-7 -12 3 209.637 161.155 4.599 19.189 o
-7 -12 4 179.756 166.172 5.781 20.907 o
-7 -12 5 2.110 2.000 1.668 1400.760 o
-7 -12 6 134.643 132.551 5.568 27.946 o
-7 -12 7 25.166 23.207 3.825 147.334 o
-7 -12 8 38.083 31.795 3.417 109.837 o
-7 -12 11 42.486 27.856 3.040 108.225 o
-7 -12 12 0.570 -0.935 2.174 1843.120 o
-7 -12 13 142.321 98.509 4.404 30.360 o
-7 -11 1 14.648 8.925 2.635 291.786 o
-7 -11 2 58.463 70.512 4.386 62.119 o
-7 -11 3 91.791 106.292 6.461 37.243 o
-7 -11 4 134.802 158.805 5.644 26.087 o
-7 -11 5 14.609 18.236 3.407 219.383 o
-7 -11 6 555.210 560.164 11.566 4.875 o
-7 -11 7 292.460 286.574 8.516 11.246 o
-7 -11 8 29.774 28.648 3.341 132.446 o
-7 -11 9 987.139 1063.040 37.071 1.687 o
-7 -11 10 237.532 247.779 23.782 8.314 o
-7 -11 11 34.898 41.368 5.150 92.591 o
-7 -11 12 187.770 180.645 5.941 19.589 o
-7 -11 13 142.520 143.900 5.267 26.329 o
-7 -11 14 73.038 77.223 4.581 52.082 o
-7 -11 15 775.927 705.066 16.040 3.130 o
-7 -11 16 800.887 724.271 16.119 3.003 o
-7 -11 17 14.430 6.130 4.109 240.194 o
-7 -11 18 37.909 38.330 4.988 92.003 o
-7 -11 19 296.683 239.223 33.515 5.346 o
-7 -11 20 141.603 207.381 9.496 20.022 o
-7 -10 1 6.505 7.108 3.358 393.824 o
-7 -10 2 783.993 868.631 16.012 2.822 o
-7 -10 3 23.959 32.327 3.495 141.768 o
-7 -10 4 0.342 2.753 2.856 960.911 o
-7 -10 5 3641.080 3713.210 50.835 0.237 o
-7 -10 6 829.888 847.530 13.690 2.763 o
-7 -10 7 35.120 47.552 3.548 100.510 o
-7 -10 8 990.495 973.985 15.453 2.159 o
-7 -10 9 73.278 61.349 3.567 58.388 o
-7 -10 10 806.288 836.974 17.175 2.772 o
-7 -10 11 264.619 235.246 7.764 13.242 o
-7 -10 12 507.638 527.332 11.353 5.413 o
-7 -10 13 704.859 693.661 17.823 3.369 o
-7 -10 14 1116.550 1135.710 25.715 1.659 o
-7 -10 15 63.993 56.325 4.820 61.593 o
-7 -10 16 10.520 14.195 3.614 262.642 o
-7 -10 17 1.224 0.453 3.808 616.387 o
-7 -10 18 685.141 617.687 18.341 3.596 o
-7 -10 19 60.923 57.555 4.899 62.831 o
-7 -10 20 1093.750 935.580 34.655 1.678 o
-7 -10 21 20.748 11.064 4.105 183.599 o
-7 -10 22 537.854 437.257 17.349 5.075 o
-7 -9 1 14.562 18.083 2.865 237.635 o
-7 -9 2 579.819 593.394 12.925 4.511 o
-7 -9 3 2015.690 2109.660 28.978 0.661 o
-7 -9 4 129.337 129.004 4.729 29.726 o
-7 -9 5 31.077 41.838 3.028 116.878 o
-7 -9 6 339.270 325.841 8.417 9.546 o
-7 -9 7 14.820 15.253 2.627 255.690 o
-7 -9 8 58.844 56.794 3.911 68.163 o
-7 -9 9 144.565 143.016 5.044 26.277 o
-7 -9 10 287.612 311.294 8.612 11.008 o
-7 -9 11 2518.600 2448.470 35.740 0.469 o
-7 -9 12 2.163 2.997 3.313 627.847 o
-7 -9 13 244.643 226.137 7.223 14.424 o
-7 -9 14 8.057 12.711 2.927 344.501 o
-7 -9 15 58.150 66.654 4.368 63.610 o
-7 -9 16 1760.250 1675.270 27.716 0.866 o
-7 -9 17 894.512 853.488 14.525 2.550 o
-7 -9 18 219.889 228.195 6.559 15.788 o
-7 -9 19 180.833 157.253 5.227 21.473 o
-7 -9 20 301.756 286.728 9.154 10.844 o
-7 -9 21 322.030 314.010 9.314 9.938 o
-7 -9 22 215.525 205.159 8.612 15.864 o
-7 -9 23 180.003 190.408 7.899 18.826 o
-7 -9 24 4.033 3.999 2.809 613.410 o
-7 -9 25 245.291 232.414 7.976 14.031 o
-7 -8 1 3926.300 4137.660 73.795 0.193 o
-7 -8 2 824.249 860.076 15.620 2.720 o
-7 -8 3 8.410 8.056 4.006 298.675 o
-7 -8 4 1401.010 1404.870 27.469 1.192 o
-7 -8 5 9.214 9.339 2.934 353.293 o
-7 -8 6 539.473 578.688 9.841 5.013 o
-7 -8 7 619.231 589.700 9.857 4.400 o
-7 -8 8 45.822 50.204 3.288 85.864 o
-7 -8 9 9.576 11.829 2.879 329.778 o
-7 -8 10 343.905 318.560 7.224 9.692 o
-7 -8 11 3.578 3.126 2.559 729.124 o
-7 -8 12 101.246 121.662 4.167 36.423 o
-7 -8 13 47.970 57.380 3.473 78.921 o
-7 -8 14 17.479 22.210 2.743 205.125 o
-7 -8 15 2289.580 2234.480 26.867 0.562 o
-7 -8 16 882.708 878.332 11.881 2.593 o
-7 -8 17 27.040 35.188 2.925 135.560 o
-7 -8 18 47.802 40.728 2.942 90.877 o
-7 -8 19 206.461 218.063 7.685 16.389 o
-7 -8 20 203.591 201.779 5.231 17.973 o
-7 -8 21 7.178 5.948 2.437 492.343 o
-7 -8 22 1501.040 1517.160 24.575 1.089 o
-7 -8 23 13.213 13.935 2.915 267.698 o
-7 -8 24 446.059 462.478 10.505 6.442 o
-7 -8 25 0.335 1.107 2.383 1469.230 o
-7 -8 26 71.874 77.933 3.543 54.814 o
-7 -8 27 152.780 139.135 6.067 24.785 o
-7 -8 28 409.683 350.176 17.564 6.705 o
-7 -8 29 748.651 599.230 15.113 3.486 o
-7 -7 1 458.804 497.597 8.095 6.267 o
-7 -7 2 4617.290 4543.430 47.380 0.161 o
-7 -7 3 1110.800 1096.280 14.506 1.831 o
-7 -7 4 759.929 756.740 11.829 3.207 o
-7 -7 5 103.409 110.583 4.443 36.909 o
-7 -7 6 414.568 417.224 8.949 7.290 o
-7 -7 7 1940.760 1917.110 22.944 0.741 o
-7 -7 8 515.760 511.901 9.397 5.528 o
-7 -7 9 93.462 91.125 2.937 44.248 o
-7 -7 10 30.046 26.020 2.182 147.767 o
-7 -7 11 239.965 234.278 4.530 15.127 o
-7 -7 12 40.709 43.763 2.049 103.083 o
-7 -7 13 157.129 140.910 3.357 25.744 o
-7 -7 14 403.993 404.023 5.459 7.837 o
-7 -7 15 2137.100 2063.760 18.922 0.648 o
-7 -7 16 0.201 3.237 1.873 1663.860 o
-7 -7 17 1443.930 1425.230 15.383 1.220 o
-7 -7 18 473.657 506.050 7.431 6.092 o
-7 -7 19 24.654 30.563 2.686 152.973 o
-7 -7 20 70.210 88.521 3.743 52.669 o
-7 -7 21 15.950 16.797 2.537 241.272 o
-7 -7 22 547.337 554.233 18.691 4.489 o
-7 -7 23 410.021 413.839 10.890 7.182 o
-7 -7 24 35.457 45.290 3.855 99.514 o
-7 -7 25 189.188 218.756 6.260 17.993 o
-7 -7 26 15.017 12.389 2.558 270.608 o
-7 -7 27 388.167 387.228 9.157 7.911 o
-7 -7 28 119.699 123.874 6.356 30.131 o
-7 -7 29 0.333 -0.912 2.699 1318.410 o
-7 -7 30 27.543 23.286 3.499 144.594 o
-7 -6 1 2334.310 2334.980 26.769 0.538 o
-7 -6 2 655.441 659.276 9.353 3.990 o
-7 -6 3 8363.200 8255.240 79.091 0.053 o
-7 -6 4 213.884 200.109 4.898 17.462 o
-7 -6 5 1468.300 1472.700 17.560 1.169 o
-7 -6 6 1288.720 1235.580 15.058 1.479 o
-7 -6 7 767.985 744.300 10.584 3.228 o
-7 -6 8 4189.570 4124.350 37.510 0.194 o
-7 -6 9 1346.110 1303.560 14.224 1.381 o
-7 -6 10 74.584 69.126 2.419 57.773 o
-7 -6 11 11270.600 11085.000 83.784 0.030 o
-7 -6 12 2069.340 2019.100 17.057 0.683 o
-7 -6 13 996.832 937.949 9.494 2.256 o
-7 -6 14 1164.390 1189.550 12.543 1.691 o
-7 -6 15 400.645 435.037 6.606 7.562 o
-7 -6 16 0.276 9.314 2.140 869.821 o
-7 -6 17 23.823 24.399 2.040 176.907 o
-7 -6 18 1441.820 1489.800 14.028 1.199 o
-7 -6 19 264.851 283.954 5.069 12.875 o
-7 -6 20 6.450 7.423 1.950 548.439 o
-7 -6 21 2571.730 2670.020 31.313 0.443 o
-7 -6 22 176.772 189.432 5.884 20.136 o
-7 -6 23 0.220 4.327 3.142 767.406 o
-7 -6 24 3.109 6.302 3.436 488.907 o
-7 -6 25 242.433 251.831 7.280 13.941 o
-7 -6 26 608.443 686.274 14.611 3.979 o
-7 -6 27 109.686 130.587 4.886 32.917 o
-7 -6 28 90.202 98.606 5.390 40.523 o
-7 -6 29 268.392 279.433 8.646 12.084 o
-7 -6 30 176.674 207.617 6.638 19.090 o
-7 -6 31 263.428 259.715 8.889 12.529 o
-7 -6 32 29.586 21.741 3.244 144.115 o
-7 -5 1 1635.650 1685.350 23.160 0.951 o
-7 -5 2 232.749 243.228 5.404 15.070 o
-7 -5 3 3749.680 3583.880 37.495 0.240 o
-7 -5 4 6597.880 6462.900 62.690 0.084 o
-7 -5 5 1372.600 1337.160 15.212 1.331 o
-7 -5 6 7779.490 7198.310 59.394 0.064 o
-7 -5 7 3929.080 3875.250 33.160 0.219 o
-7 -5 8 4928.030 4821.160 43.183 0.145 o
-7 -5 9 2455.600 2392.290 23.055 0.506 o
-7 -5 10 1203.860 1175.950 11.663 1.650 o
-7 -5 11 1635.690 1599.700 13.802 1.010 o
-7 -5 12 8939.490 8540.880 63.417 0.048 o
-7 -5 13 309.412 293.546 4.363 11.298 o
-7 -5 14 5613.460 5591.160 43.707 0.113 o
-7 -5 15 1.178 4.998 1.694 1244.720 o
-7 -5 16 141.095 144.899 3.181 27.711 o
-7 -5 17 2675.250 2619.240 22.671 0.437 o
-7 -5 18 131.710 128.502 3.153 30.473 o
-7 -5 19 624.573 644.707 7.720 4.261 o
-7 -5 20 1630.540 1565.620 16.640 1.017 o
-7 -5 21 14.515 14.268 2.570 265.567 o
-7 -5 22 3.662 8.261 2.608 563.086 o
-7 -5 23 49.748 57.646 3.323 77.678 o
-7 -5 24 653.152 710.177 11.477 3.801 o
-7 -5 25 69.378 64.198 3.365 60.295 o
-7 -5 26 845.390 913.162 14.291 2.608 o
-7 -5 27 587.079 649.556 11.834 4.334 o
-7 -5 28 293.939 322.088 8.043 10.789 o
-7 -5 29 869.914 957.663 16.765 2.435 o
-7 -5 30 1.426 2.356 2.477 1031.730 o
-7 -5 31 263.576 317.302 7.566 11.865 o
-7 -5 32 329.823 311.891 7.937 10.006 o
-7 -5 33 2.054 1.098 1.636 1583.760 o
-7 -4 1 2612.990 2609.980 33.250 0.438 o
-7 -4 2 14.562 11.617 2.014 300.368 o
-7 -4 3 213.166 251.922 4.406 16.096 o
-7 -4 4 279.527 282.017 4.648 12.436 o
-7 -4 5 5071.100 4836.140 37.569 0.141 o
-7 -4 6 184.001 191.654 3.493 20.350 o
-7 -4 7 285.822 287.660 4.483 12.140 o
-7 -4 8 31.096 37.840 1.794 130.342 o
-7 -4 9 327.433 347.977 4.787 10.012 o
-7 -4 10 4942.520 4827.200 41.857 0.144 o
-7 -4 11 6001.660 5742.090 49.306 0.102 o
-7 -4 12 486.665 443.381 5.829 6.381 o
-7 -4 13 170.990 167.856 3.425 22.646 o
-7 -4 14 254.299 240.427 4.159 14.367 o
-7 -4 15 11206.900 11155.000 84.149 0.031 o
-7 -4 16 31.815 35.570 2.068 129.664 o
-7 -4 17 76.690 89.170 2.732 51.330 o
-7 -4 18 2411.810 2374.970 20.651 0.521 o
-7 -4 19 349.513 350.208 5.178 9.429 o
-7 -4 20 631.407 652.026 9.276 4.151 o
-7 -4 21 921.145 940.118 12.631 2.398 o
-7 -4 22 3442.060 3515.250 46.657 0.263 o
-7 -4 23 3435.920 3537.420 46.061 0.263 o
-7 -4 24 428.485 448.188 9.247 6.857 o
-7 -4 25 785.364 852.922 14.150 2.887 o
-7 -4 26 160.088 175.156 8.313 20.683 o
-7 -4 27 66.644 63.153 3.791 61.151 o
-7 -4 28 54.932 60.827 4.818 66.047 o
-7 -4 29 176.102 193.843 6.789 19.573 o
-7 -4 30 1165.940 1309.610 23.444 1.511 o
-7 -4 31 100.582 122.006 4.729 35.898 o
-7 -4 32 0.330 -0.975 2.398 1643.070 o
-7 -4 33 332.977 352.037 9.557 9.221 o
-7 -4 34 45.968 33.805 3.329 96.001 o
-7 -3 1 976.642 998.915 15.497 2.162 o
-7 -3 2 0.694 5.270 1.624 1367.970 o
-7 -3 3 2167.270 2072.760 23.241 0.629 o
-7 -3 4 473.346 507.107 5.694 6.173 o
-7 -3 5 887.924 1018.040 11.788 2.395 o
-7 -3 6 221.312 225.866 4.083 16.442 o
-7 -3 7 0.711 5.571 1.321 1497.540 o
-7 -3 8 10136.800 9822.660 70.133 0.038 o
-7 -3 9 38.327 35.128 1.701 117.102 o
-7 -3 10 2115.790 2050.760 17.507 0.660 o
-7 -3 11 4297.760 4231.160 31.024 0.187 o
-7 -3 12 1794.880 1640.020 13.200 0.902 o
-7 -3 13 351.132 367.312 4.535 9.257 o
-7 -3 14 106.788 131.398 2.836 35.225 o
-7 -3 15 752.494 731.196 7.442 3.380 o
-7 -3 16 7056.940 6783.700 48.625 0.076 o
-7 -3 17 646.304 643.156 6.950 4.153 o
-7 -3 18 5717.340 5582.300 41.182 0.111 o
-7 -3 19 405.991 400.064 5.043 7.863 o
-7 -3 20 665.612 634.493 10.018 3.982 o
-7 -3 21 866.665 831.473 11.033 2.723 o
-7 -3 22 670.441 677.423 10.205 3.835 o
-7 -3 23 2834.260 2917.080 34.154 0.375 o
-7 -3 24 576.136 575.851 9.059 4.777 o
-7 -3 25 47.897 52.141 2.977 83.793 o
-7 -3 26 233.110 244.680 5.572 14.976 o
-7 -3 27 369.805 362.416 6.805 8.718 o
-7 -3 28 434.332 450.059 9.329 6.762 o
-7 -3 29 439.585 467.924 11.596 6.389 o
-7 -3 30 22.598 24.630 3.301 162.730 o
-7 -3 31 734.993 781.851 15.589 3.153 o
-7 -3 32 44.426 46.353 4.711 81.712 o
-7 -3 33 26.316 19.845 2.696 166.989 o
-7 -3 34 37.294 29.234 2.316 122.384 o
-7 -2 1 844.155 936.218 12.865 2.605 o
-7 -2 2 235.713 247.990 4.879 14.927 o
-7 -2 3 5688.330 5353.800 56.893 0.113 o
-7 -2 4 420.254 418.347 6.200 7.417 o
-7 -2 5 5747.270 5645.190 49.992 0.109 o
-7 -2 6 639.120 663.189 8.556 4.095 o
-7 -2 7 4975.070 4920.230 43.631 0.141 o
-7 -2 8 4277.380 4333.950 42.404 0.183 o
-7 -2 9 3661.060 3548.000 27.648 0.252 o
-7 -2 10 829.060 692.178 7.041 3.153 o
-7 -2 11 3773.480 3853.860 27.652 0.232 o
-7 -2 12 1505.660 1425.900 11.568 1.181 o
-7 -2 13 523.893 458.915 4.954 5.913 o
-7 -2 14 238.746 278.739 3.785 14.263 o
-7 -2 15 285.311 292.004 3.822 12.162 o
-7 -2 16 115.437 149.329 2.744 31.735 o
-7 -2 17 737.676 743.061 7.698 3.414 o
-7 -2 18 43.474 38.240 1.979 103.369 o
-7 -2 19 101.359 90.230 2.899 41.913 o
-7 -2 20 552.758 521.932 7.666 5.236 o
-7 -2 21 187.767 185.209 4.568 19.961 o
-7 -2 22 15.571 18.907 2.393 239.531 o
-7 -2 23 1506.300 1523.290 19.680 1.109 o
-7 -2 24 1033.240 1047.190 14.632 2.011 o
-7 -2 25 53.241 56.316 2.945 76.385 o
-7 -2 26 680.930 724.278 10.643 3.653 o
-7 -2 27 291.402 302.590 5.923 11.509 o
-7 -2 28 855.043 884.515 12.444 2.655 o
-7 -2 29 56.453 59.569 3.957 68.751 o
-7 -2 30 244.715 285.893 7.409 13.124 o
-7 -2 31 428.139 471.226 11.171 6.544 o
-7 -2 32 9.648 10.309 2.933 337.477 o
-7 -2 33 27.923 30.133 3.709 130.958 o
-7 -2 34 45.940 44.898 2.781 91.336 o
-7 -2 35 82.396 43.151 3.879 57.614 o
-7 -1 1 16.762 21.106 3.946 182.687 o
-7 -1 2 69.785 71.737 5.533 52.210 o
-7 -1 3 237.943 284.616 15.385 10.834 o
-7 -1 4 687.527 788.774 35.256 2.510 o
-7 -1 5 5925.660 5590.400 140.504 0.089 o
-7 -1 6 2757.700 2683.330 71.758 0.350 o
-7 -1 7 317.763 284.920 15.392 9.029 o
-7 -1 8 2294.840 2168.200 58.628 0.495 o
-7 -1 9 283.804 196.656 6.313 13.606 o
-7 -1 10 3010.890 3252.390 39.485 0.325 o
-7 -1 11 996.011 1083.940 13.019 2.065 o
-7 -1 12 22.342 40.914 1.971 150.529 o
-7 -1 13 8037.540 8060.210 59.558 0.057 o
-7 -1 14 7711.920 7450.260 52.486 0.064 o
-7 -1 15 111.718 132.434 2.679 34.155 o
-7 -1 16 524.582 495.551 6.016 5.682 o
-7 -1 17 6995.910 6722.140 56.867 0.076 o
-7 -1 18 24.135 98.726 19.636 20.552 o
-7 -1 19 2.162 5.700 1.779 977.842 o
-7 -1 20 4357.850 4238.060 39.499 0.182 o
-7 -1 21 34.376 39.495 2.579 115.801 o
-7 -1 22 3.458 8.809 2.064 650.188 o
-7 -1 23 627.110 606.698 9.852 4.296 o
-7 -1 24 192.266 204.945 5.093 18.691 o
-7 -1 25 175.809 175.277 4.875 21.273 o
-7 -1 26 84.239 83.938 3.256 48.505 o
-7 -1 27 257.943 270.944 5.594 13.301 o
-7 -1 28 2174.500 2288.230 24.531 0.591 o
-7 -1 29 17.276 17.133 2.458 231.173 o
-7 -1 30 19.313 22.373 3.229 183.732 o
-7 -1 31 244.648 277.641 8.048 13.119 o
-7 -1 32 436.891 458.034 10.439 6.585 o
-7 -1 33 364.102 362.646 11.933 8.153 o
-7 -1 34 93.956 86.571 13.670 25.185 o
-7 -1 35 38.991 43.014 4.073 94.449 o
-7 0 1 2963.390 3276.920 72.332 0.294 o
-7 0 2 657.503 820.480 28.425 2.852 o
-7 0 3 249.034 325.179 16.789 9.635 o
-7 0 4 240.489 224.906 11.508 13.134 o
-7 0 5 4144.110 3776.630 139.086 0.152 o
-7 0 6 904.018 931.282 30.805 2.063 o
-7 0 7 1626.730 1817.940 82.157 0.589 o
-7 0 8 2805.170 3010.750 121.667 0.249 o
-7 0 9 554.575 548.103 38.432 2.992 o
-7 0 10 4205.830 4505.800 168.475 0.124 o
-7 0 11 8039.090 8031.320 152.779 0.052 o
-7 0 12 4588.690 4360.640 46.105 0.167 o
-7 0 13 97.045 92.722 3.323 42.395 o
-7 0 14 4541.290 4370.120 37.656 0.171 o
-7 0 15 21.705 19.957 1.662 205.357 o
-7 0 16 636.804 575.970 8.380 4.381 o
-7 0 17 24.540 26.608 1.855 170.807 o
-7 0 18 1350.480 1182.180 16.544 1.429 o
-7 0 19 1056.820 946.332 13.196 2.079 o
-7 0 20 56.507 67.338 3.210 68.239 o
-7 0 21 219.176 247.238 5.877 15.531 o
-7 0 22 952.312 891.786 13.538 2.367 o
-7 0 23 134.097 148.913 4.774 27.477 o
-7 0 24 1739.890 1746.820 23.322 0.874 o
-7 0 25 663.057 667.270 9.965 3.909 o
-7 0 26 1944.740 1960.780 22.814 0.731 o
-7 0 27 515.153 533.240 10.979 5.344 o
-7 0 28 13.613 11.873 2.102 308.179 o
-7 0 29 34.960 44.177 2.965 107.603 o
-7 0 30 17.662 22.087 2.834 202.308 o
-7 0 31 1655.830 1788.600 28.712 0.886 o
-7 0 32 37.920 32.989 2.818 113.563 o
-7 0 33 14.981 22.128 3.100 212.572 o
-7 0 34 591.971 604.964 16.241 4.219 o
-7 0 35 23.703 20.177 3.216 168.818 o
-7 1 1 2311.370 2536.070 64.177 0.442 o
-7 1 2 76.304 83.986 5.592 46.927 o
-7 1 3 1296.260 1132.440 26.683 1.429 o
-7 1 4 6629.180 6680.310 136.383 0.073 o
-7 1 5 1108.890 1156.940 55.832 1.185 o
-7 1 6 14.192 28.355 9.665 75.561 o
-7 1 7 1118.260 996.326 26.474 1.744 o
-7 1 8 317.902 419.878 16.911 7.565 o
-7 1 9 844.260 857.587 26.611 2.377 o
-7 1 10 777.915 728.286 18.910 2.990 o
-7 1 11 8675.590 8631.090 201.123 0.042 o
-7 1 12 1979.580 1896.010 51.714 0.633 o
-7 1 13 2.136 4.720 1.564 1138.030 o
-7 1 14 14.246 12.832 1.728 306.044 o
-7 1 15 256.020 245.950 4.657 14.080 o
-7 1 16 5575.600 5850.450 80.473 0.106 o
-7 1 17 8311.860 8260.620 100.543 0.052 o
-7 1 18 1052.190 1012.370 21.452 1.915 o
-7 1 19 1886.530 1800.010 32.853 0.758 o
-7 1 20 517.024 492.027 8.834 5.641 o
-7 1 21 2306.830 2213.900 39.671 0.536 o
-7 1 22 1706.520 1841.610 27.844 0.850 o
-7 1 23 97.528 100.997 4.497 39.553 o
-7 1 24 1028.980 1090.040 15.818 1.965 o
-7 1 25 434.952 452.547 8.456 6.808 o
-7 1 26 971.381 939.200 14.003 2.260 o
-7 1 27 69.052 70.752 3.882 57.359 o
-7 1 28 8.022 7.615 2.553 429.350 o
-7 1 29 17.591 16.385 2.793 222.758 o
-7 1 30 1.997 1.523 2.311 1094.560 o
-7 1 31 85.914 71.156 3.477 50.075 o
-7 1 32 340.284 365.881 13.139 8.337 o
-7 1 33 0.087 0.639 2.298 1743.850 o
-7 1 34 41.784 31.253 3.016 106.622 o
-7 1 35 600.641 484.064 18.085 4.418 o
-7 2 1 0.314 4.304 3.151 757.395 o
-7 2 2 7320.140 8041.380 180.038 0.055 o
-7 2 3 4194.470 4514.180 89.857 0.164 o
-7 2 4 2227.800 2557.100 98.777 0.364 o
-7 2 5 2292.830 2136.860 88.797 0.410 o
-7 2 6 3198.710 3202.180 64.022 0.285 o
-7 2 7 12.748 3.943 3.607 295.732 o
-7 2 8 181.878 187.947 7.891 18.785 o
-7 2 9 3167.770 3168.690 64.435 0.289 o
-7 2 10 498.613 506.049 14.639 5.344 o
-7 2 11 356.315 372.539 11.959 8.198 o
-7 2 12 869.048 845.055 21.387 2.476 o
-7 2 13 251.143 255.558 4.936 14.031 o
-7 2 14 2431.010 2427.970 26.956 0.503 o
-7 2 15 153.789 201.183 4.939 22.081 o
-7 2 16 0.172 6.097 2.066 1143.120 o
-7 2 17 75.594 89.026 4.705 48.263 o
-7 2 18 4305.000 4374.040 59.282 0.175 o
-7 2 19 4124.880 4300.650 68.944 0.182 o
-7 2 20 70.651 73.068 4.411 54.599 o
-7 2 21 190.310 203.365 6.574 18.305 o
-7 2 22 315.859 326.500 9.655 9.874 o
-7 2 23 7.472 9.694 3.079 371.825 o
-7 2 24 173.266 172.194 5.660 21.271 o
-7 2 25 549.890 515.454 10.457 5.154 o
-7 2 26 11.396 7.188 2.695 349.774 o
-7 2 27 79.820 74.003 4.444 50.155 o
-7 2 28 82.356 68.533 4.712 49.640 o
-7 2 29 2.677 1.370 3.064 716.808 o
-7 2 30 5.291 4.580 2.431 602.892 o
-7 2 31 11.608 23.264 2.328 257.566 o
-7 2 32 140.027 118.955 5.028 28.601 o
-7 2 33 102.501 86.186 4.365 40.408 o
-7 2 34 0.006 0.518 3.354 880.090 o
-7 3 1 193.030 217.945 10.230 15.955 o
-7 3 2 1171.770 1125.670 24.795 1.604 o
-7 3 3 5717.890 6005.440 114.213 0.095 o
-7 3 4 24.426 32.724 5.332 114.444 o
-7 3 5 5534.030 5687.060 135.966 0.096 o
-7 3 6 1655.050 1642.650 44.451 0.840 o
-7 3 7 4214.910 3938.680 78.485 0.181 o
-7 3 8 1061.740 1040.500 25.275 1.816 o
-7 3 9 4645.630 4701.690 92.400 0.143 o
-7 3 10 2755.110 2923.780 61.413 0.352 o
-7 3 11 1825.900 1691.920 39.091 0.781 o
-7 3 12 1088.770 1127.700 36.545 1.532 o
-7 3 13 1603.730 1893.920 28.336 0.888 o
-7 3 14 3618.460 3702.280 44.288 0.243 o
-7 3 15 2488.600 2708.800 35.758 0.449 o
-7 3 16 0.821 8.937 2.279 793.197 o
-7 3 17 48.698 47.680 3.567 82.739 o
-7 3 18 118.127 102.568 5.268 33.594 o
-7 3 19 1757.570 1853.780 38.129 0.780 o
-7 3 20 274.065 257.493 9.579 12.018 o
-7 3 21 161.986 204.561 7.537 19.842 o
-7 3 22 130.275 145.178 7.479 25.922 o
-7 3 23 744.858 792.245 20.090 2.954 o
-7 3 24 1.438 -0.474 3.083 882.899 o
-7 3 25 13.251 8.114 3.055 294.286 o
-7 3 26 6.357 14.222 5.298 214.072 o
-7 3 27 0.284 -2.032 3.106 1017.840 o
-7 3 28 898.669 869.708 27.409 2.222 o
-7 3 29 21.358 20.402 4.273 157.120 o
-7 3 30 124.524 123.802 4.371 31.276 o
-7 3 31 35.842 36.182 3.195 111.685 o
-7 3 32 112.506 111.481 5.282 33.813 o
-7 3 33 367.132 376.159 9.560 8.320 o
-7 3 34 132.795 118.622 7.699 27.078 o
-7 4 1 21886.700 22952.700 742.326 0.006 o
-7 4 2 759.338 792.546 27.123 2.655 o
-7 4 3 2304.760 2296.600 62.248 0.470 o
-7 4 4 0.955 2.537 4.946 369.681 o
-7 4 5 2.798 16.011 5.261 235.392 o
-7 4 6 15626.500 15430.400 356.447 0.014 o
-7 4 7 1854.840 1728.250 72.444 0.596 o
-7 4 8 6523.370 6559.510 158.413 0.072 o
-7 4 9 0.835 3.462 3.464 650.713 o
-7 4 10 1106.240 1070.500 33.930 1.589 o
-7 4 11 795.937 815.377 27.259 2.525 o
-7 4 12 2346.960 2202.020 87.252 0.402 o
-7 4 13 2725.730 2607.320 46.683 0.400 o
-7 4 14 685.395 677.566 13.229 3.663 o
-7 4 15 2115.300 2090.010 33.524 0.621 o
-7 4 16 2932.270 2823.070 50.023 0.351 o
-7 4 17 2414.850 2356.830 45.627 0.482 o
-7 4 18 2398.480 2276.330 116.465 0.318 o
-7 4 19 2508.540 2482.810 81.662 0.375 o
-7 4 20 73.606 74.416 7.550 44.284 o
-7 4 21 1484.850 1443.600 31.968 1.079 o
-7 4 22 546.688 541.825 15.254 4.780 o
-7 4 23 127.724 126.357 6.735 28.288 o
-7 4 24 1095.150 1187.410 26.825 1.638 o
-7 4 25 362.807 401.786 11.941 7.849 o
-7 4 26 393.662 434.374 16.145 6.602 o
-7 4 27 3476.650 3491.620 121.582 0.198 o
-7 4 28 147.125 122.785 9.130 23.639 o
-7 4 29 33.237 35.015 4.481 106.041 o
-7 4 30 174.440 166.676 7.207 20.557 o
-7 4 31 55.342 56.666 3.698 71.722 o
-7 4 32 1331.660 1300.310 41.117 1.162 o
-7 4 33 1.863 -1.168 2.242 1323.270 o
-7 4 34 380.399 290.560 12.168 8.462 o
-7 5 1 109.281 122.336 13.180 22.621 o
-7 5 2 21.511 12.855 7.725 101.269 o
-7 5 3 3244.520 3194.940 81.145 0.263 o
-7 5 4 4793.240 4581.870 112.240 0.133 o
-7 5 5 1446.800 1257.390 37.520 1.128 o
-7 5 6 3816.460 3599.490 76.190 0.213 o
-7 5 7 17308.000 16574.500 312.470 0.012 o
-7 5 8 242.189 243.414 15.359 11.284 o
-7 5 9 1272.820 1407.200 70.849 0.846 o
-7 5 10 95.294 70.217 15.630 22.649 o
-7 5 11 1498.350 1436.490 72.313 0.744 o
-7 5 12 8055.870 7738.350 184.858 0.050 o
-7 5 13 3866.240 3838.000 98.139 0.189 o
-7 5 14 4198.320 4229.680 83.069 0.173 o
-7 5 15 4.120 6.370 3.051 512.550 o
-7 5 16 2040.100 1994.720 42.705 0.632 o
-7 5 17 11.843 5.332 4.937 224.191 o
-7 5 18 9646.380 8678.350 276.485 0.033 o
-7 5 19 3752.650 3951.510 93.966 0.195 o
-7 5 20 6846.530 7180.220 164.257 0.064 o
-7 5 21 1341.720 1275.780 28.700 1.291 o
-7 5 22 3372.900 3470.960 70.591 0.252 o
-7 5 23 98.116 126.491 6.852 33.091 o
-7 5 24 581.632 590.049 19.637 4.114 o
-7 5 25 3477.300 3415.800 81.640 0.237 o
-7 5 26 1858.170 1925.680 39.902 0.717 o
-7 5 27 1538.030 1561.260 40.267 0.948 o
-7 5 28 2189.750 2256.210 79.394 0.445 o
-7 5 29 230.403 231.835 17.334 10.975 o
-7 5 30 3.211 4.985 3.187 554.087 o
-7 5 31 237.632 251.167 7.302 14.156 o
-7 5 32 73.811 64.685 5.143 53.112 o
-7 5 33 676.522 616.691 23.284 3.390 o
-7 6 1 4.407 12.202 4.253 305.883 o
-7 6 2 1015.080 1218.790 36.841 1.559 o
-7 6 3 127.855 107.668 12.254 22.769 o
-7 6 4 406.642 493.211 35.758 3.809 o
-7 6 5 4217.370 3827.780 105.720 0.169 o
-7 6 6 815.743 804.190 34.919 2.231 o
-7 6 7 222.538 212.242 17.087 11.557 o
-7 6 8 3492.370 3517.650 76.823 0.236 o
-7 6 9 15.958 12.239 7.253 120.167 o
-7 6 10 191.715 124.952 6.065 21.523 o
-7 6 11 886.442 801.758 26.486 2.348 o
-7 6 12 1089.680 1028.450 40.735 1.513 o
-7 6 13 1652.790 1732.030 82.525 0.591 o
-7 6 14 954.889 1006.620 46.008 1.568 o
-7 6 15 5967.950 5714.410 95.794 0.096 o
-7 6 16 285.576 257.439 8.075 12.014 o
-7 6 17 7.572 11.624 5.481 206.101 o
-7 6 18 231.730 193.257 13.627 13.143 o
-7 6 19 85.912 89.015 8.262 37.092 o
-7 6 20 1345.510 1384.530 59.944 0.928 o
-7 6 21 1131.170 1146.310 44.708 1.345 o
-7 6 22 76.350 105.157 5.496 43.496 o
-7 6 23 3937.170 3967.090 80.813 0.193 o
-7 6 24 270.419 288.085 9.945 11.552 o
-7 6 25 746.262 812.287 19.351 2.940 o
-7 6 26 62.635 56.435 4.376 63.991 o
-7 6 27 521.757 517.875 27.579 4.011 o
-7 6 28 152.022 146.632 11.256 20.123 o
-7 6 29 0.677 6.429 4.082 458.450 o
-7 6 30 23.955 27.228 4.073 140.882 o
-7 6 31 605.097 598.049 31.066 3.239 o
-7 6 32 40.629 46.327 5.457 80.735 o
-7 6 33 3.902 4.623 2.368 697.830 o
-7 7 1 7331.080 7592.200 170.310 0.057 o
-7 7 2 983.832 1116.450 28.230 1.827 o
-7 7 3 354.775 445.393 23.258 5.885 o
-7 7 4 1953.550 1936.900 56.434 0.615 o
-7 7 5 1938.850 2058.850 60.586 0.585 o
-7 7 6 1541.450 1802.790 45.927 0.846 o
-7 7 7 6.580 10.337 4.300 286.790 o
-7 7 8 11305.900 10947.800 213.796 0.027 o
-7 7 9 441.905 491.354 17.570 5.632 o
-7 7 10 1094.080 1247.870 27.326 1.593 o
-7 7 11 2789.040 2866.630 56.781 0.358 o
-7 7 12 241.526 262.226 9.605 13.070 o
-7 7 13 686.363 675.913 17.576 3.495 o
-7 7 14 826.246 826.187 31.325 2.306 o
-7 7 15 989.065 1046.250 28.551 1.868 o
-7 7 16 1885.220 1884.790 51.069 0.667 o
-7 7 17 295.559 327.131 12.642 9.712 o
-7 7 18 0.038 8.417 3.636 527.433 o
-7 7 19 625.925 644.593 29.394 3.188 o
-7 7 20 77.211 68.675 9.148 39.513 o
-7 7 21 843.180 898.829 49.424 1.672 o
-7 7 22 62.866 62.431 5.237 58.973 o
-7 7 23 1949.470 2005.860 40.666 0.667 o
-7 7 24 72.538 72.388 5.564 50.780 o
-7 7 25 122.574 124.214 5.138 30.892 o
-7 7 26 277.988 242.736 9.938 12.032 o
-7 7 27 694.493 666.646 19.761 3.386 o
-7 7 28 258.024 226.359 15.027 11.206 o
-7 7 29 1794.740 1429.780 495.190 0.040 o
-7 7 30 806.188 726.533 94.121 0.851 o
-7 7 31 355.199 268.284 61.384 2.161 o
-7 7 32 357.595 299.086 12.365 8.772 o
-7 8 1 6347.000 6600.390 90.570 0.083 o
-7 8 2 13621.200 13844.600 199.272 0.019 o
-7 8 3 1.245 8.851 2.798 636.064 o
-7 8 4 5162.770 5393.010 80.859 0.121 o
-7 8 5 769.536 793.185 15.176 3.018 o
-7 8 6 281.818 260.050 7.314 12.265 o
-7 8 7 1881.650 1755.550 28.527 0.785 o
-7 8 8 1350.630 1415.560 50.747 1.010 o
-7 8 9 887.663 984.184 29.399 2.079 o
-7 8 10 2287.640 2553.170 52.020 0.474 o
-7 8 11 518.026 523.869 13.070 5.222 o
-7 8 12 357.792 355.855 10.199 8.590 o
-7 8 13 4080.490 4053.240 85.055 0.182 o
-7 8 14 6976.920 7039.020 151.463 0.065 o
-7 8 15 133.099 149.932 12.214 20.555 o
-7 8 16 1316.160 1306.430 35.390 1.233 o
-7 8 17 29.918 24.239 4.736 119.908 o
-7 8 18 2044.430 2091.300 136.415 0.306 o
-7 8 19 1559.180 1621.100 42.979 0.902 o
-7 8 20 559.071 533.884 17.771 4.546 o
-7 8 21 190.446 196.237 15.932 13.422 o
-7 8 22 680.302 696.133 15.705 3.552 o
-7 8 23 24.398 20.563 3.361 162.623 o
-7 8 24 3.973 1.115 3.425 558.550 o
-7 8 25 988.908 993.684 36.279 1.748 o
-7 8 26 11.238 11.379 5.672 179.426 o
-7 8 27 40.486 38.559 4.326 93.615 o
-7 8 28 753.640 765.128 18.188 3.034 o
-7 8 29 35.612 23.753 3.934 117.846 o
-7 8 30 66.235 54.439 10.332 40.644 o
-7 8 31 133.679 105.873 6.361 29.330 o
-7 9 1 0.656 9.799 2.970 605.012 o
-7 9 2 450.907 426.581 10.280 6.620 o
-7 9 3 13.748 14.817 3.016 254.035 o
-7 9 4 1257.350 1300.120 22.461 1.421 o
-7 9 5 9217.140 8794.340 183.735 0.040 o
-7 9 6 150.997 163.431 6.970 23.007 o
-7 9 7 547.948 518.745 16.090 4.795 o
-7 9 8 1305.670 1265.070 29.799 1.319 o
-7 9 9 1156.270 1138.180 82.871 0.813 o
-7 9 10 1285.610 1278.420 43.013 1.184 o
-7 9 11 7701.820 7715.480 127.895 0.058 o
-7 9 12 3492.070 3552.460 58.405 0.250 o
-7 9 13 807.851 865.273 23.935 2.537 o
-7 9 14 1195.010 1220.810 30.167 1.452 o
-7 9 15 1814.110 1858.350 49.562 0.703 o
-7 9 16 177.253 209.449 12.395 15.776 o
-7 9 17 567.385 634.622 31.423 3.284 o
-7 9 18 1633.970 1756.310 45.587 0.816 o
-7 9 19 330.298 340.193 13.458 8.690 o
-7 9 20 3200.560 3415.550 81.867 0.257 o
-7 9 21 219.832 259.573 11.082 13.427 o
-7 9 22 145.449 164.300 5.701 24.438 o
-7 9 23 833.248 875.251 20.748 2.547 o
-7 9 24 139.798 153.191 9.261 22.723 o
-7 9 25 755.222 755.990 31.254 2.554 o
-7 9 26 1193.220 1184.180 30.483 1.470 o
-7 9 27 56.562 56.431 5.519 63.459 o
-7 9 28 839.171 779.809 26.176 2.496 o
-7 9 29 720.455 646.293 24.906 3.091 o
-7 9 30 260.970 200.730 9.181 13.651 o
-7 10 1 4570.700 4313.540 58.006 0.165 o
-7 10 2 4540.260 4655.200 75.207 0.154 o
-7 10 3 2432.190 2615.390 40.621 0.461 o
-7 10 4 25.516 34.241 3.199 138.138 o
-7 10 5 141.898 124.687 7.375 25.852 o
-7 10 6 10361.900 10202.400 262.449 0.029 o
-7 10 7 124.096 162.378 7.284 25.810 o
-7 10 8 2832.550 2777.230 76.156 0.328 o
-7 10 9 2755.910 2889.480 72.346 0.337 o
-7 10 10 704.137 802.585 18.762 3.124 o
-7 10 11 1805.310 1886.300 32.857 0.774 o
-7 10 12 765.638 749.455 15.693 3.096 o
-7 10 13 4866.360 5322.670 183.842 0.097 o
-7 10 14 13052.600 12881.000 250.719 0.020 o
-7 10 15 660.465 675.837 24.261 3.287 o
-7 10 16 972.218 1051.820 34.512 1.768 o
-7 10 17 96.781 105.297 10.147 29.756 o
-7 10 18 1125.370 1143.860 32.017 1.551 o
-7 10 19 1326.120 1365.430 36.706 1.187 o
-7 10 20 375.545 428.110 15.316 6.983 o
-7 10 21 275.653 329.407 8.789 11.055 o
-7 10 22 22.537 23.073 3.215 167.643 o
-7 10 23 230.946 240.393 12.869 12.660 o
-7 10 24 249.186 238.796 10.943 12.770 o
-7 10 25 6.905 12.009 4.014 292.222 o
-7 10 26 3.066 2.496 2.214 915.242 o
-7 10 27 2.773 8.615 3.806 412.465 o
-7 10 28 355.486 234.599 10.176 9.925 o
-7 11 1 641.759 575.902 11.794 4.226 o
-7 11 2 2055.510 2154.150 31.766 0.634 o
-7 11 3 10.190 3.433 2.878 397.948 o
-7 11 4 783.083 736.975 15.594 3.058 o
-7 11 5 188.433 157.841 8.636 18.959 o
-7 11 6 0.871 3.001 2.559 1023.990 o
-7 11 7 1110.580 1211.120 37.981 1.439 o
-7 11 8 9.178 10.057 3.097 336.342 o
-7 11 9 0.138 15.322 3.010 500.545 o
-7 11 10 2.557 8.310 3.004 543.920 o
-7 11 11 939.264 934.890 17.007 2.291 o
-7 11 12 140.863 165.917 7.016 23.901 o
-7 11 13 500.629 515.691 14.615 5.288 o
-7 11 14 269.670 253.895 13.912 10.899 o
-7 11 15 32.620 38.009 5.732 92.481 o
-7 11 16 49.457 41.744 5.768 72.745 o
-7 11 17 146.746 166.241 11.511 19.562 o
-7 11 18 482.068 469.439 16.445 5.486 o
-7 11 19 1.166 2.908 4.063 503.754 o
-7 11 20 846.154 865.218 24.792 2.416 o
-7 11 21 7.528 7.546 3.233 379.215 o
-7 11 22 0.418 0.458 2.355 1578.190 o
-7 11 23 50.833 44.252 2.756 85.823 o
-7 11 24 95.959 94.819 5.822 38.739 o
-7 11 25 466.903 422.886 18.678 5.592 o
-7 11 26 194.215 186.775 9.991 16.873 o
-7 11 27 1106.400 817.512 28.175 1.871 o
-7 12 1 406.815 463.377 10.149 6.963 o
-7 12 2 1931.560 1804.020 31.198 0.744 o
-7 12 3 2307.830 2286.510 45.365 0.514 o
-7 12 4 922.675 961.314 25.037 2.137 o
-7 12 5 492.066 549.139 13.594 5.297 o
-7 12 6 451.409 449.104 10.624 6.448 o
-7 12 7 352.811 334.174 8.040 9.211 o
-7 12 8 44.124 39.104 4.000 90.725 o
-7 12 9 26.041 30.408 2.972 145.093 o
-7 12 10 838.046 894.893 24.658 2.404 o
-7 12 11 359.525 429.769 9.860 7.951 o
-7 12 12 3.037 3.783 2.728 700.027 o
-7 12 13 983.081 1007.010 20.674 2.059 o
-7 12 14 0.446 8.981 4.202 411.958 o
-7 12 15 1975.520 2154.090 51.970 0.595 o
-7 12 16 35.463 39.760 6.640 80.128 o
-7 12 17 188.542 200.923 14.227 14.373 o
-7 12 18 7.974 8.686 3.511 337.014 o
-7 12 19 111.924 114.404 5.308 33.606 o
-7 12 20 189.974 212.604 7.268 17.718 o
-7 12 21 9.629 7.161 2.198 423.008 o
-7 12 22 212.300 194.685 9.154 16.073 o
-7 12 23 17.309 19.764 2.902 210.212 o
-7 12 24 388.492 377.360 16.520 6.961 o
-7 12 25 353.032 337.591 14.067 8.192 o
-7 13 1 3185.250 3496.080 54.735 0.281 o
-7 13 2 2100.990 2122.480 52.770 0.563 o
-7 13 3 803.794 869.097 24.751 2.517 o
-7 13 4 533.895 590.593 15.671 4.670 o
-7 13 5 19.684 10.377 2.930 225.650 o
-7 13 6 1129.630 1306.140 27.183 1.515 o
-7 13 7 5.574 5.530 2.855 503.461 o
-7 13 8 835.201 946.242 25.142 2.337 o
-7 13 9 598.211 676.975 12.522 4.154 o
-7 13 10 143.857 145.210 5.639 25.806 o
-7 13 11 11.303 18.879 3.205 250.595 o
-7 13 12 483.580 524.688 12.645 5.552 o
-7 13 13 278.672 322.302 9.650 10.883 o
-7 13 14 1625.870 1790.060 51.683 0.776 o
-7 13 15 111.235 91.227 5.974 35.301 o
-7 13 16 410.257 426.305 17.422 6.287 o
-7 13 17 522.401 540.439 14.422 5.025 o
-7 13 18 15.516 23.120 3.300 200.734 o
-7 13 19 174.085 182.227 6.991 20.078 o
-7 13 20 574.702 588.535 10.747 4.669 o
-7 13 21 1121.140 1067.860 22.815 1.741 o
-7 13 22 33.799 38.527 3.599 110.027 o
-7 13 23 39.041 27.228 8.177 69.968 o
-7 14 1 749.762 811.468 15.421 3.049 o
-7 14 2 1149.660 1336.320 22.762 1.522 o
-7 14 3 29.459 59.504 3.998 96.811 o
-7 14 4 113.795 128.089 5.942 31.242 o
-7 14 5 44.596 43.845 3.799 88.405 o
-7 14 6 49.525 76.675 4.506 65.533 o
-7 14 7 7332.010 7905.180 127.530 0.060 o
-7 14 8 1005.070 1124.390 25.540 1.835 o
-7 14 9 311.411 327.348 10.574 9.793 o
-7 14 10 1700.690 1855.410 62.436 0.675 o
-7 14 11 1092.330 1110.030 30.968 1.630 o
-7 14 12 460.082 532.881 13.820 5.638 o
-7 14 13 243.819 279.652 11.099 12.199 o
-7 14 14 2654.260 2785.920 54.885 0.385 o
-7 14 15 854.813 936.442 21.293 2.401 o
-7 14 16 224.711 214.401 7.671 15.517 o
-7 14 17 2554.340 2616.280 50.762 0.421 o
-7 14 18 194.821 197.748 8.093 17.497 o
-7 14 19 1490.250 1394.200 31.338 1.098 o
-7 14 20 312.018 272.065 31.504 5.504 o
-7 14 21 14.943 17.723 6.471 132.854 o
-7 15 1 87.276 82.357 4.059 46.361 o
-7 15 2 649.895 660.592 12.875 3.898 o
-7 15 3 281.361 299.282 7.634 11.572 o
-7 15 4 367.004 362.298 8.508 8.583 o
-7 15 5 962.118 1000.930 19.746 2.122 o
-7 15 6 1238.130 1240.370 23.392 1.468 o
-7 15 7 1.119 16.998 3.685 370.356 o
-7 15 8 4207.260 4553.050 147.952 0.133 o
-7 15 9 1265.730 1210.820 61.152 1.000 o
-7 15 10 3.675 6.666 3.301 484.639 o
-7 15 11 472.770 440.526 13.690 5.979 o
-7 15 12 37.198 41.954 4.745 92.524 o
-7 15 13 1212.090 1277.640 46.303 1.200 o
-7 15 14 99.733 99.684 5.929 37.025 o
-7 15 15 1037.390 1063.230 27.258 1.803 o
-7 15 16 60.899 49.925 4.151 68.312 o
-7 15 17 0.339 1.718 1.430 2705.320 o
-7 15 18 102.532 77.726 4.664 41.172 o
-7 16 1 1050.090 1054.450 25.871 1.813 o
-7 16 2 175.195 185.994 6.788 19.950 o
-7 16 3 76.026 94.856 6.140 43.859 o
-7 16 4 980.143 1017.900 19.170 2.079 o
-7 16 5 398.810 418.720 14.385 6.874 o
-7 16 6 188.720 208.761 7.098 18.000 o
-7 16 7 51.143 54.686 3.745 76.035 o
-7 16 8 34.616 47.132 3.480 102.118 o
-7 16 9 18.651 21.121 2.712 201.948 o
-7 16 10 522.817 549.991 15.841 4.883 o
-7 16 11 329.180 362.251 11.403 8.885 o
-7 16 12 42.718 46.438 5.044 81.329 o
-7 16 13 288.130 277.008 9.437 11.311 o
-7 16 14 84.467 69.342 6.604 44.140 o
-7 16 15 440.601 353.905 13.888 6.819 o
-7 17 1 9.139 5.664 3.521 342.027 o
-7 17 2 106.351 121.344 6.065 33.084 o
-7 17 3 2823.030 2812.330 54.877 0.360 o
-7 17 4 1290.940 1403.010 34.170 1.226 o
-7 17 5 219.676 232.216 9.069 14.803 o
-7 17 6 380.514 377.212 21.886 6.185 o
-7 17 7 42.535 51.953 3.622 87.000 o
-7 17 8 283.102 264.893 22.020 8.031 o
-7 17 9 460.995 425.787 45.395 2.900 o
-7 17 10 322.160 286.950 19.987 7.816 o
-7 17 11 831.433 653.696 22.750 2.806 o
-7 18 1 25.027 15.184 2.646 184.404 o
-7 18 2 191.058 138.157 6.550 20.736 o
-6 -13 3 534.547 402.545 15.716 5.388 o
-6 -13 4 1507.060 1250.670 29.971 1.150 o
-6 -13 5 216.168 215.680 7.435 16.018 o
-6 -13 6 29.599 20.452 2.991 149.478 o
-6 -13 7 520.811 470.043 13.383 5.407 o
-6 -13 8 707.564 664.890 25.015 3.099 o
-6 -13 9 326.300 278.069 8.685 10.394 o
-6 -13 10 498.943 353.223 10.340 6.477 o
-6 -13 11 528.450 393.641 9.898 5.955 o
-6 -13 12 0.113 1.378 1.452 3127.770 o
-6 -13 13 255.059 186.663 8.850 14.313 o
-6 -13 14 338.998 238.955 10.189 10.273 o
-6 -12 1 558.584 567.408 13.660 4.705 o
-6 -12 2 201.569 202.755 7.111 17.365 o
-6 -12 3 60.428 54.470 4.119 67.106 o
-6 -12 4 3.168 3.486 2.220 847.207 o
-6 -12 5 9.998 12.781 2.333 346.699 o
-6 -12 6 248.704 232.279 7.253 14.099 o
-6 -12 7 43.102 42.650 3.525 92.684 o
-6 -12 8 247.300 255.465 9.075 13.145 o
-6 -12 9 105.454 90.292 5.750 37.060 o
-6 -12 10 52.571 54.420 4.164 73.093 o
-6 -12 11 679.005 681.493 13.949 3.659 o
-6 -12 12 1.300 -1.998 2.501 1257.250 o
-6 -12 13 137.392 114.969 4.599 29.663 o
-6 -12 14 389.067 357.654 9.686 8.082 o
-6 -12 15 29.266 27.081 5.506 108.394 o
-6 -12 16 3.467 0.831 3.499 572.109 o
-6 -12 17 10.408 8.537 2.938 339.257 o
-6 -12 18 443.521 349.329 14.924 6.678 o
-6 -12 19 181.763 115.531 6.705 22.514 o
-6 -12 20 50.052 38.319 3.888 84.756 o
-6 -11 1 135.231 132.182 5.541 27.910 o
-6 -11 2 95.682 108.071 5.261 38.018 o
-6 -11 3 100.457 120.099 5.184 35.577 o
-6 -11 4 227.082 253.558 7.465 14.526 o
-6 -11 5 48.190 57.577 3.946 76.544 o
-6 -11 6 380.850 381.753 9.213 8.074 o
-6 -11 7 129.868 128.615 5.298 29.189 o
-6 -11 8 1910.360 1916.950 43.763 0.684 o
-6 -11 9 489.399 467.503 11.471 5.862 o
-6 -11 10 777.332 798.116 17.010 2.932 o
-6 -11 11 642.833 662.124 14.964 3.845 o
-6 -11 12 70.630 67.480 4.752 55.071 o
-6 -11 13 253.598 257.805 8.116 13.137 o
-6 -11 14 249.795 237.106 8.733 13.513 o
-6 -11 15 3.869 0.693 3.607 534.470 o
-6 -11 16 319.021 308.597 8.366 10.246 o
-6 -11 17 212.428 208.565 13.095 13.841 o
-6 -11 18 6.881 3.599 5.098 264.708 o
-6 -11 19 131.500 116.849 8.069 26.952 o
-6 -11 20 67.465 62.951 4.624 58.294 o
-6 -11 21 9.253 9.282 4.314 262.539 o
-6 -11 22 504.326 411.997 16.753 5.513 o
-6 -10 1 246.319 256.442 9.141 13.144 o
-6 -10 2 243.027 278.878 7.297 13.355 o
-6 -10 3 137.661 149.672 6.099 25.950 o
-6 -10 4 2021.220 1972.510 27.411 0.688 o
-6 -10 5 242.176 261.474 6.125 14.040 o
-6 -10 6 1350.610 1378.630 20.135 1.302 o
-6 -10 7 54.674 56.596 3.293 73.780 o
-6 -10 8 1420.550 1461.700 24.821 1.172 o
-6 -10 9 1607.690 1674.270 38.958 0.889 o
-6 -10 10 696.682 715.870 13.316 3.518 o
-6 -10 11 1427.870 1419.740 21.360 1.205 o
-6 -10 12 1870.840 1795.270 32.058 0.768 o
-6 -10 13 16.999 17.633 3.512 202.568 o
-6 -10 14 1155.000 1167.580 23.489 1.614 o
-6 -10 15 2.126 6.634 3.412 522.925 o
-6 -10 16 1541.450 1553.980 29.013 1.022 o
-6 -10 17 2354.360 2269.750 39.855 0.517 o
-6 -10 18 54.831 57.008 4.112 70.403 o
-6 -10 19 18.965 16.259 3.607 192.629 o
-6 -10 20 55.713 55.839 3.715 71.697 o
-6 -10 21 136.575 149.768 5.197 26.776 o
-6 -10 22 21.931 20.095 3.019 180.698 o
-6 -10 23 322.487 322.023 8.700 9.938 o
-6 -10 24 101.328 94.364 5.156 38.481 o
-6 -10 25 188.203 149.566 4.916 21.296 o
-6 -10 26 41.595 32.672 2.239 110.369 o
-6 -9 1 386.902 396.204 8.973 7.878 o
-6 -9 2 221.940 238.490 6.089 15.554 o
-6 -9 3 1722.510 1754.940 23.724 0.880 o
-6 -9 4 41.563 43.703 3.139 96.331 o
-6 -9 5 309.925 312.260 6.713 10.705 o
-6 -9 6 271.605 235.794 5.795 13.418 o
-6 -9 7 2.135 2.274 2.350 995.497 o
-6 -9 8 348.489 389.458 7.911 8.750 o
-6 -9 9 721.997 756.976 11.951 3.358 o
-6 -9 10 1031.640 1075.320 17.257 1.955 o
-6 -9 11 616.772 621.295 12.260 4.220 o
-6 -9 12 255.037 245.563 6.024 13.852 o
-6 -9 13 4131.690 3955.440 47.449 0.199 o
-6 -9 14 486.388 574.103 10.654 5.438 o
-6 -9 15 760.459 774.526 14.130 3.113 o
-6 -9 16 236.256 209.843 7.566 15.092 o
-6 -9 17 1317.610 1348.960 19.781 1.353 o
-6 -9 18 1785.550 1805.440 26.293 0.826 o
-6 -9 19 121.835 110.295 4.475 32.935 o
-6 -9 20 49.385 51.387 3.645 79.739 o
-6 -9 21 80.831 95.790 5.297 43.963 o
-6 -9 22 927.388 976.505 17.090 2.269 o
-6 -9 23 295.454 302.445 8.101 11.012 o
-6 -9 24 218.448 232.559 6.777 15.679 o
-6 -9 25 43.837 40.989 3.757 91.408 o
-6 -9 26 0.851 0.028 2.558 1312.250 o
-6 -9 27 15.513 16.446 2.594 244.888 o
-6 -9 28 77.993 74.337 4.040 51.741 o
-6 -9 29 234.107 174.978 5.755 16.734 o
-6 -8 1 406.165 398.807 9.384 7.509 o
-6 -8 2 578.897 575.011 10.492 4.699 o
-6 -8 3 469.222 470.098 11.258 6.076 o
-6 -8 4 114.218 100.415 4.300 35.741 o
-6 -8 5 1.737 3.177 2.351 987.481 o
-6 -8 6 1865.560 1811.560 20.140 0.805 o
-6 -8 7 1002.310 978.474 12.965 2.162 o
-6 -8 8 351.154 367.683 6.944 9.027 o
-6 -8 9 38.426 39.539 2.652 107.542 o
-6 -8 10 1489.600 1441.510 16.030 1.171 o
-6 -8 11 541.881 550.808 8.613 5.165 o
-6 -8 12 4.300 -0.440 2.259 900.807 o
-6 -8 13 15.845 15.068 2.233 259.012 o
-6 -8 14 19.239 14.619 2.306 229.381 o
-6 -8 15 554.781 571.385 7.780 5.009 o
-6 -8 16 53.388 51.926 2.733 79.062 o
-6 -8 17 26.367 26.614 2.413 157.184 o
-6 -8 18 393.086 393.703 7.000 7.989 o
-6 -8 19 361.611 394.800 7.250 8.519 o
-6 -8 20 546.505 569.550 9.623 5.004 o
-6 -8 21 274.437 278.961 6.499 12.360 o
-6 -8 22 819.518 832.254 13.256 2.829 o
-6 -8 23 379.492 405.338 8.608 7.964 o
-6 -8 24 94.275 87.309 3.901 43.372 o
-6 -8 25 55.956 61.984 3.749 68.952 o
-6 -8 26 39.886 49.292 3.695 91.525 o
-6 -8 27 1923.730 2010.610 34.541 0.696 o
-6 -8 28 242.088 258.232 7.515 13.755 o
-6 -8 29 132.742 117.546 4.394 30.378 o
-6 -8 30 353.282 274.839 44.626 3.454 o
-6 -8 31 4.533 3.556 1.485 897.040 o
-6 -7 1 102.476 107.093 3.634 38.480 o
-6 -7 2 2711.590 2666.880 27.227 0.422 o
-6 -7 3 247.914 224.297 6.655 14.478 o
-6 -7 4 681.602 648.576 10.254 3.851 o
-6 -7 5 1098.910 1040.730 16.451 1.877 o
-6 -7 6 1295.210 1330.270 15.732 1.413 o
-6 -7 7 5.182 10.218 2.115 524.186 o
-6 -7 8 2156.380 2077.110 21.774 0.634 o
-6 -7 9 10.338 11.457 1.724 385.164 o
-6 -7 10 680.674 597.990 8.460 4.046 o
-6 -7 11 253.909 248.732 4.202 14.190 o
-6 -7 12 1507.960 1464.950 13.313 1.157 o
-6 -7 13 461.528 491.330 6.443 6.365 o
-6 -7 14 400.842 382.980 5.354 8.076 o
-6 -7 15 795.989 875.167 9.843 2.899 o
-6 -7 16 183.795 173.656 3.784 21.049 o
-6 -7 17 241.496 227.179 4.290 15.276 o
-6 -7 18 50.663 57.684 2.529 79.565 o
-6 -7 19 53.352 42.508 2.553 84.704 o
-6 -7 20 870.644 866.018 11.288 2.655 o
-6 -7 21 153.983 149.927 4.508 25.009 o
-6 -7 22 427.076 425.133 8.916 7.060 o
-6 -7 23 828.381 922.296 15.607 2.617 o
-6 -7 24 942.860 959.996 15.982 2.271 o
-6 -7 25 0.092 -0.769 2.966 1146.400 o
-6 -7 26 132.793 138.534 5.844 27.547 o
-6 -7 27 0.056 0.351 2.869 1195.420 o
-6 -7 28 164.201 171.676 5.338 22.300 o
-6 -7 29 53.347 54.258 3.425 75.511 o
-6 -7 30 607.129 571.800 33.790 3.103 o
-6 -7 31 508.188 494.187 58.027 2.015 o
-6 -7 32 73.970 78.564 5.544 48.976 o
-6 -6 1 45.425 46.018 2.660 91.814 o
-6 -6 2 0.316 3.882 2.072 1351.240 o
-6 -6 3 21.264 16.943 2.189 209.252 o
-6 -6 4 652.835 647.692 8.002 4.075 o
-6 -6 5 97.332 108.935 3.826 39.384 o
-6 -6 6 1087.580 1046.180 12.105 1.936 o
-6 -6 7 99.829 103.400 2.628 40.669 o
-6 -6 8 1071.760 1039.980 11.241 1.979 o
-6 -6 9 14.578 19.491 1.821 260.668 o
-6 -6 10 4226.250 3968.980 28.708 0.199 o
-6 -6 11 299.817 350.488 4.569 10.727 o
-6 -6 12 144.051 102.839 2.415 30.936 o
-6 -6 13 3387.870 3265.030 24.290 0.292 o
-6 -6 14 82.392 66.945 2.299 54.449 o
-6 -6 15 2225.810 2242.150 18.872 0.591 o
-6 -6 16 408.366 404.816 5.239 7.773 o
-6 -6 17 15.725 28.570 1.946 211.795 o
-6 -6 18 3893.740 3934.830 32.495 0.219 o
-6 -6 19 1262.750 1249.050 12.495 1.518 o
-6 -6 20 373.941 377.635 6.254 8.544 o
-6 -6 21 1335.270 1309.370 16.292 1.378 o
-6 -6 22 1.285 3.257 2.201 1127.130 o
-6 -6 23 114.283 122.957 3.995 33.617 o
-6 -6 24 279.955 312.156 6.892 11.556 o
-6 -6 25 112.635 118.376 6.140 32.084 o
-6 -6 26 62.983 67.208 4.858 58.862 o
-6 -6 27 339.443 342.478 9.673 9.167 o
-6 -6 28 208.663 224.285 7.303 16.242 o
-6 -6 29 23.503 26.581 3.181 157.488 o
-6 -6 30 52.481 52.157 3.163 78.302 o
-6 -6 31 32.572 40.826 2.770 116.810 o
-6 -6 32 924.252 887.328 18.487 2.354 o
-6 -6 33 911.549 823.935 40.322 1.882 o
-6 -5 1 3159.910 3054.200 32.691 0.324 o
-6 -5 2 613.344 597.339 9.039 4.443 o
-6 -5 3 1134.710 1062.920 11.928 1.841 o
-6 -5 4 18376.400 17336.600 137.871 0.012 o
-6 -5 5 789.225 739.281 7.459 3.211 o
-6 -5 6 2552.480 2293.410 18.871 0.499 o
-6 -5 7 917.083 904.121 8.709 2.504 o
-6 -5 8 351.468 284.347 3.800 10.296 o
-6 -5 9 2368.690 2314.540 18.709 0.542 o
-6 -5 10 647.930 626.283 6.567 4.203 o
-6 -5 11 5515.330 5224.620 37.061 0.121 o
-6 -5 12 1397.520 1302.880 10.963 1.342 o
-6 -5 13 50.343 37.509 1.729 94.374 o
-6 -5 14 2177.700 2137.320 16.291 0.626 o
-6 -5 15 1324.130 1232.810 10.607 1.463 o
-6 -5 16 403.191 378.716 4.790 8.109 o
-6 -5 17 355.598 354.034 4.768 9.286 o
-6 -5 18 1418.900 1317.300 13.452 1.303 o
-6 -5 19 3689.050 3478.630 33.085 0.251 o
-6 -5 20 355.372 303.327 6.189 9.730 o
-6 -5 21 35.006 43.548 2.447 111.382 o
-6 -5 22 325.003 329.421 6.020 10.174 o
-6 -5 23 1036.440 1062.280 14.515 1.992 o
-6 -5 24 1238.090 1349.030 20.624 1.431 o
-6 -5 25 1049.350 1120.310 18.821 1.865 o
-6 -5 26 3.092 5.180 3.245 544.112 o
-6 -5 27 396.354 426.493 11.397 7.228 o
-6 -5 28 189.741 194.101 7.152 18.400 o
-6 -5 29 418.789 473.763 11.493 6.612 o
-6 -5 30 1364.620 1473.460 26.709 1.200 o
-6 -5 31 72.341 81.866 4.696 51.087 o
-6 -5 32 140.042 156.399 4.989 26.035 o
-6 -5 33 656.645 667.627 18.396 3.610 o
-6 -5 34 15.897 13.579 1.914 275.508 o
-6 -4 1 283.269 265.922 5.209 12.506 o
-6 -4 2 85.717 47.313 2.076 58.153 o
-6 -4 3 1294.160 1239.890 14.074 1.476 o
-6 -4 4 2960.080 2827.730 38.453 0.359 o
-6 -4 5 344.272 316.742 5.491 9.912 o
-6 -4 6 117.496 115.777 3.942 33.740 o
-6 -4 7 798.075 746.124 10.385 3.112 o
-6 -4 8 834.338 839.619 8.947 2.844 o
-6 -4 9 772.676 786.596 8.000 3.174 o
-6 -4 10 2648.460 2514.330 22.508 0.452 o
-6 -4 11 39.080 43.530 1.814 107.045 o
-6 -4 12 1961.860 1902.900 15.397 0.751 o
-6 -4 13 36.428 34.969 1.653 121.651 o
-6 -4 14 53.724 63.378 2.083 75.143 o
-6 -4 15 9.542 10.299 1.473 431.311 o
-6 -4 16 1520.220 1478.110 12.585 1.144 o
-6 -4 17 4585.850 4213.620 33.351 0.173 o
-6 -4 18 2893.600 2773.730 23.529 0.386 o
-6 -4 19 358.675 361.099 5.035 9.122 o
-6 -4 20 2548.850 2624.090 24.706 0.459 o
-6 -4 21 470.155 509.296 7.229 6.123 o
-6 -4 22 4012.220 3944.560 38.506 0.210 o
-6 -4 23 4654.110 4523.410 41.913 0.161 o
-6 -4 24 254.060 289.309 6.838 12.839 o
-6 -4 25 1228.350 1306.930 17.537 1.491 o
-6 -4 26 18.981 24.561 3.258 179.408 o
-6 -4 27 1202.750 1252.030 20.355 1.532 o
-6 -4 28 675.980 776.075 15.168 3.415 o
-6 -4 29 169.070 169.506 5.846 21.675 o
-6 -4 30 421.028 448.098 9.703 6.916 o
-6 -4 31 1720.310 1802.670 29.668 0.845 o
-6 -4 32 9.255 13.447 3.672 276.972 o
-6 -4 33 194.960 193.058 7.888 17.736 o
-6 -4 34 117.866 112.509 6.886 30.744 o
-6 -3 1 294.657 239.438 11.215 11.214 o
-6 -3 2 1703.830 1771.970 44.169 0.790 o
-6 -3 3 2042.550 2025.080 46.831 0.613 o
-6 -3 4 129.126 131.926 7.457 26.942 o
-6 -3 5 1901.470 2201.470 56.276 0.593 o
-6 -3 6 3702.810 3788.450 141.774 0.165 o
-6 -3 7 70.307 75.108 6.850 47.374 o
-6 -3 8 1871.240 1653.680 50.005 0.717 o
-6 -3 9 2213.100 2150.160 50.529 0.539 o
-6 -3 10 5578.270 5363.030 82.482 0.111 o
-6 -3 11 471.633 464.290 6.866 6.383 o
-6 -3 12 3385.720 3129.790 23.039 0.299 o
-6 -3 13 146.979 140.678 2.475 27.470 o
-6 -3 14 1824.480 1770.460 13.879 0.849 o
-6 -3 15 9538.950 9070.320 63.806 0.043 o
-6 -3 16 6747.730 6135.600 42.912 0.085 o
-6 -3 17 2854.250 2848.480 21.516 0.387 o
-6 -3 18 0.261 6.756 1.443 1387.140 o
-6 -3 19 37.731 54.384 2.131 99.042 o
-6 -3 20 1384.980 1441.100 14.364 1.272 o
-6 -3 21 4238.830 4118.480 40.322 0.191 o
-6 -3 22 3679.940 3766.210 38.962 0.238 o
-6 -3 23 7910.450 8002.770 75.163 0.058 o
-6 -3 24 3304.260 3408.930 32.817 0.289 o
-6 -3 25 194.115 184.905 4.965 19.337 o
-6 -3 26 278.402 276.691 5.948 12.363 o
-6 -3 27 789.756 790.813 12.582 3.015 o
-6 -3 28 1459.110 1541.740 23.932 1.115 o
-6 -3 29 1417.450 1499.020 23.112 1.170 o
-6 -3 30 25.969 29.574 3.239 143.248 o
-6 -3 31 404.205 457.826 9.570 7.091 o
-6 -3 32 95.789 85.851 6.306 39.080 o
-6 -3 33 171.873 170.910 10.011 18.772 o
-6 -3 34 242.912 225.270 39.012 4.707 o
-6 -3 35 31.314 34.247 4.144 113.698 o
-6 -2 1 13781.100 13716.100 284.266 0.018 o
-6 -2 2 2566.470 2422.670 47.498 0.442 o
-6 -2 3 51.003 64.850 4.706 67.885 o
-6 -2 4 14918.500 15615.600 259.572 0.016 o
-6 -2 5 110.563 81.914 9.382 30.759 o
-6 -2 6 2951.380 2897.500 76.631 0.309 o
-6 -2 7 568.885 540.805 18.645 4.400 o
-6 -2 8 6625.590 6102.290 122.422 0.079 o
-6 -2 9 2099.220 2054.520 49.484 0.584 o
-6 -2 10 2603.550 2646.410 76.106 0.364 o
-6 -2 11 10263.300 10733.400 316.340 0.026 o
-6 -2 12 474.271 411.826 19.337 5.501 o
-6 -2 13 770.696 825.924 9.962 3.074 o
-6 -2 14 646.252 644.304 6.998 4.148 o
-6 -2 15 1915.250 1904.120 16.796 0.768 o
-6 -2 16 6341.040 6358.320 46.350 0.090 o
-6 -2 17 45.394 75.407 2.257 76.852 o
-6 -2 18 224.552 217.526 3.690 16.577 o
-6 -2 19 10119.900 9729.140 77.881 0.038 o
-6 -2 20 386.952 367.474 6.071 8.411 o
-6 -2 21 59.265 51.217 2.981 73.174 o
-6 -2 22 0.855 4.816 2.209 1063.080 o
-6 -2 23 1301.980 1336.070 15.432 1.404 o
-6 -2 24 1058.250 1100.120 13.308 1.930 o
-6 -2 25 743.908 798.987 11.017 3.206 o
-6 -2 26 70.480 78.286 3.394 55.738 o
-6 -2 27 58.387 57.661 3.129 70.775 o
-6 -2 28 410.195 434.197 7.829 7.328 o
-6 -2 29 47.056 46.952 3.353 86.006 o
-6 -2 30 138.171 151.121 5.008 26.608 o
-6 -2 31 26.909 29.691 3.024 142.865 o
-6 -2 32 1.770 -0.228 2.885 939.571 o
-6 -2 33 1.471 1.853 3.099 781.884 o
-6 -2 34 0.173 2.162 2.803 1057.630 o
-6 -1 1 9735.690 10096.800 193.374 0.035 o
-6 -1 2 561.194 611.503 21.510 4.041 o
-6 -1 3 299.235 246.430 11.841 10.818 o
-6 -1 4 13215.400 13553.800 457.521 0.015 o
-6 -1 5 6955.560 7112.350 237.937 0.054 o
-6 -1 6 2864.380 3031.850 77.573 0.309 o
-6 -1 7 14705.800 14840.100 337.375 0.015 o
-6 -1 8 225.518 262.639 12.653 12.550 o
-6 -1 9 2028.900 2145.950 76.376 0.494 o
-6 -1 10 1497.560 1499.010 41.835 0.978 o
-6 -1 11 388.228 427.360 16.363 6.678 o
-6 -1 12 28419.700 28115.100 622.627 0.004 o
-6 -1 13 1057.540 1050.970 89.376 0.788 o
-6 -1 14 409.480 447.580 15.876 6.380 o
-6 -1 15 3581.110 3292.170 33.734 0.268 o
-6 -1 16 515.284 499.526 5.862 5.760 o
-6 -1 17 6454.920 6188.970 47.545 0.089 o
-6 -1 18 0.085 4.140 1.512 1889.450 o
-6 -1 19 1973.750 1930.810 22.105 0.727 o
-6 -1 20 6288.420 6242.920 67.885 0.090 o
-6 -1 21 12.355 15.365 2.314 293.451 o
-6 -1 22 390.916 417.278 7.342 7.799 o
-6 -1 23 27.452 28.348 2.781 146.145 o
-6 -1 24 566.505 537.970 8.737 5.010 o
-6 -1 25 326.355 304.047 6.585 10.392 o
-6 -1 26 222.834 224.178 5.980 15.916 o
-6 -1 27 275.898 288.723 6.712 12.101 o
-6 -1 28 82.518 82.942 3.369 49.222 o
-6 -1 29 45.429 35.296 3.090 97.098 o
-6 -1 30 540.056 575.499 10.157 5.006 o
-6 -1 31 0.092 1.464 2.365 1507.710 o
-6 -1 32 203.193 207.577 7.588 16.919 o
-6 -1 33 13.964 11.404 3.245 259.150 o
-6 -1 34 45.985 52.321 6.025 69.795 o
-6 0 1 6661.750 7027.660 221.581 0.058 o
-6 0 2 2257.070 2269.750 65.226 0.474 o
-6 0 3 5855.580 5577.960 97.520 0.100 o
-6 0 4 1469.790 1362.520 33.566 1.107 o
-6 0 5 1230.400 1192.290 53.283 1.126 o
-6 0 6 25499.600 26351.900 478.728 0.005 o
-6 0 7 4307.760 4461.530 85.125 0.163 o
-6 0 8 2008.980 2003.230 84.683 0.480 o
-6 0 9 0.132 14.200 8.714 118.368 o
-6 0 10 51.265 29.766 10.575 48.152 o
-6 0 11 7655.760 7432.080 255.129 0.046 o
-6 0 12 148.226 178.431 19.479 13.040 o
-6 0 13 2532.390 2406.770 61.666 0.421 o
-6 0 14 162.160 179.069 9.214 19.734 o
-6 0 15 297.175 365.379 8.627 10.038 o
-6 0 16 162.903 199.401 6.164 20.733 o
-6 0 17 5588.670 5310.110 61.504 0.115 o
-6 0 18 8.177 8.679 1.884 467.640 o
-6 0 19 384.703 377.088 9.073 8.064 o
-6 0 20 7.408 7.450 2.500 453.988 o
-6 0 21 1922.830 1894.090 26.188 0.745 o
-6 0 22 53.767 46.953 3.226 79.354 o
-6 0 23 1110.520 1097.860 15.799 1.817 o
-6 0 24 383.203 386.192 7.794 8.150 o
-6 0 25 362.073 360.786 8.078 8.745 o
-6 0 26 1645.830 1634.280 22.242 0.964 o
-6 0 27 16.851 19.872 2.725 217.377 o
-6 0 28 604.827 640.408 11.289 4.275 o
-6 0 29 320.955 332.548 7.923 9.972 o
-6 0 30 17.179 16.385 3.179 214.895 o
-6 0 31 217.233 231.753 6.007 16.006 o
-6 0 32 590.453 680.854 14.672 4.091 o
-6 0 33 408.834 455.372 10.437 6.961 o
-6 0 34 96.486 78.536 4.954 42.380 o
-6 0 35 265.940 299.478 10.229 11.441 o
-6 0 36 21.608 24.576 3.290 167.052 o
-6 1 1 6473.440 6751.880 150.820 0.072 o
-6 1 2 1044.910 1267.680 40.309 1.441 o
-6 1 3 4608.020 5243.570 88.983 0.137 o
-6 1 4 2921.680 2658.180 67.665 0.338 o
-6 1 5 2092.590 1978.180 178.158 0.220 o
-6 1 6 12303.800 13626.400 255.426 0.021 o
-6 1 7 179.105 188.464 11.833 16.576 o
-6 1 8 12.162 32.285 5.024 152.340 o
-6 1 9 6021.900 5828.610 137.632 0.087 o
-6 1 10 40.230 34.914 3.526 102.588 o
-6 1 11 762.803 913.586 21.640 2.662 o
-6 1 12 152.425 231.220 8.607 18.928 o
-6 1 13 371.342 467.398 31.593 4.506 o
-6 1 14 4969.560 5403.290 190.611 0.092 o
-6 1 15 285.315 248.478 21.818 8.178 o
-6 1 16 6602.810 6606.600 96.808 0.079 o
-6 1 17 71.240 69.923 3.283 57.785 o
-6 1 18 112.518 86.540 3.477 38.704 o
-6 1 19 3572.940 3279.530 54.619 0.257 o
-6 1 20 55.783 57.014 4.113 69.650 o
-6 1 21 2892.040 2876.550 44.231 0.359 o
-6 1 22 956.117 934.782 15.926 2.271 o
-6 1 23 85.297 81.947 4.732 45.916 o
-6 1 24 7425.690 7463.980 91.439 0.064 o
-6 1 25 163.475 160.648 4.989 23.105 o
-6 1 26 86.087 85.772 4.547 45.317 o
-6 1 27 393.460 371.412 9.072 7.964 o
-6 1 28 453.405 442.975 11.292 6.401 o
-6 1 29 566.144 581.426 12.629 4.661 o
-6 1 30 1087.880 1127.480 19.976 1.783 o
-6 1 31 180.230 202.611 8.798 17.904 o
-6 1 32 814.832 849.813 17.250 2.725 o
-6 1 33 9.011 12.927 2.392 359.861 o
-6 1 34 23.973 27.047 3.164 155.170 o
-6 1 35 154.886 139.997 6.490 24.186 o
-6 1 36 19.213 9.382 2.421 248.557 o
-6 2 1 2823.430 3491.060 71.590 0.298 o
-6 2 2 83.313 43.502 4.005 56.712 o
-6 2 3 1718.800 1735.000 35.105 0.838 o
-6 2 4 1411.640 1302.220 28.823 1.216 o
-6 2 5 366.147 252.267 10.665 9.390 o
-6 2 6 673.948 683.221 15.692 3.612 o
-6 2 7 483.359 462.325 13.030 5.821 o
-6 2 8 457.175 465.621 20.701 5.265 o
-6 2 9 9760.100 10025.500 185.834 0.035 o
-6 2 10 909.102 810.137 25.411 2.317 o
-6 2 11 21.325 11.167 3.786 188.921 o
-6 2 12 4153.610 3926.970 159.238 0.137 o
-6 2 13 383.695 434.660 16.094 6.727 o
-6 2 14 1367.420 1418.790 44.198 1.063 o
-6 2 15 1488.650 1518.020 66.856 0.776 o
-6 2 16 910.013 929.413 22.421 2.255 o
-6 2 17 2389.190 2231.430 32.310 0.528 o
-6 2 18 24.005 23.283 4.035 147.491 o
-6 2 19 527.332 558.336 14.081 4.942 o
-6 2 20 2461.620 2417.950 39.773 0.477 o
-6 2 21 70.809 73.683 4.569 53.967 o
-6 2 22 1292.380 1385.510 34.327 1.231 o
-6 2 23 15.546 22.663 4.267 176.468 o
-6 2 24 0.566 1.581 3.230 825.437 o
-6 2 25 524.972 513.810 14.067 5.136 o
-6 2 26 12.621 11.185 3.358 268.848 o
-6 2 27 80.838 84.161 7.131 41.675 o
-6 2 28 347.191 354.339 15.273 7.926 o
-6 2 29 82.689 79.822 5.509 45.580 o
-6 2 30 184.973 188.992 7.150 18.914 o
-6 2 31 10.014 13.455 3.001 304.522 o
-6 2 32 106.396 96.439 4.760 37.502 o
-6 2 33 12.055 8.292 2.125 361.419 o
-6 2 34 5.494 5.429 2.120 620.975 o
-6 2 35 3.724 1.670 1.906 996.141 o
-6 2 36 75.108 56.592 4.257 56.935 o
-6 3 1 4095.270 4253.420 103.377 0.166 o
-6 3 2 2566.520 2822.030 72.005 0.365 o
-6 3 3 544.140 431.490 16.130 5.152 o
-6 3 4 394.838 345.964 15.435 7.256 o
-6 3 5 529.913 322.539 11.100 6.232 o
-6 3 6 2651.760 2465.750 45.856 0.426 o
-6 3 7 10264.100 10068.600 284.101 0.029 o
-6 3 8 16485.100 17011.000 384.959 0.012 o
-6 3 9 2361.590 2463.510 68.635 0.429 o
-6 3 10 1667.100 1885.560 50.809 0.746 o
-6 3 11 160.857 112.106 7.683 24.099 o
-6 3 12 1091.520 1121.150 32.926 1.592 o
-6 3 13 2416.330 2074.860 54.986 0.489 o
-6 3 14 142.210 187.815 9.680 20.609 o
-6 3 15 839.757 821.756 25.394 2.467 o
-6 3 16 2776.880 2719.970 67.678 0.352 o
-6 3 17 1064.570 1045.330 28.930 1.746 o
-6 3 18 12.908 13.104 5.576 171.326 o
-6 3 19 155.753 143.768 5.741 24.407 o
-6 3 20 2194.650 2223.750 45.489 0.548 o
-6 3 21 2486.700 2673.740 53.670 0.423 o
-6 3 22 34.898 39.280 4.832 96.805 o
-6 3 23 1051.800 1011.100 23.649 1.882 o
-6 3 24 1062.850 1006.070 23.412 1.872 o
-6 3 25 2043.890 1886.330 39.485 0.659 o
-6 3 26 23.753 27.088 5.324 121.877 o
-6 3 27 17.281 6.070 6.875 132.579 o
-6 3 28 81.797 76.752 7.405 41.799 o
-6 3 29 0.598 -0.751 5.462 333.389 o
-6 3 30 75.617 78.743 5.393 48.674 o
-6 3 31 1.015 0.075 2.783 1103.550 o
-6 3 32 107.673 108.012 4.684 35.930 o
-6 3 33 17.574 16.533 3.087 214.291 o
-6 3 34 72.044 66.048 3.160 58.678 o
-6 3 35 59.655 45.961 2.552 76.470 o
-6 4 1 292.643 298.664 19.742 8.240 o
-6 4 2 6670.060 6339.730 122.713 0.076 o
-6 4 3 19174.700 20356.000 457.989 0.009 o
-6 4 4 1659.660 1362.930 38.019 0.951 o
-6 4 5 5474.010 4789.410 96.033 0.117 o
-6 4 6 5010.110 4961.870 106.513 0.124 o
-6 4 7 5098.040 4960.310 124.063 0.116 o
-6 4 8 9041.540 8889.250 209.772 0.039 o
-6 4 9 4816.130 5127.610 127.444 0.119 o
-6 4 10 235.265 257.661 15.481 11.232 o
-6 4 11 6791.720 6861.400 166.056 0.066 o
-6 4 12 11798.000 12175.600 282.851 0.023 o
-6 4 13 1015.510 1038.970 26.466 1.870 o
-6 4 14 1407.360 1242.460 30.396 1.231 o
-6 4 15 160.412 140.448 8.351 22.155 o
-6 4 16 362.009 329.448 25.131 6.036 o
-6 4 17 77.722 59.180 6.599 48.334 o
-6 4 18 283.128 243.157 13.654 10.766 o
-6 4 19 343.586 314.260 12.489 8.873 o
-6 4 20 111.316 108.806 10.993 26.173 o
-6 4 21 2763.520 2692.130 41.688 0.395 o
-6 4 22 1508.030 1578.640 26.577 1.051 o
-6 4 23 2709.450 2627.880 54.612 0.389 o
-6 4 24 5431.280 5330.070 129.505 0.103 o
-6 4 25 67.906 70.512 5.180 54.419 o
-6 4 26 26.587 41.246 4.451 112.784 o
-6 4 27 98.983 133.281 12.380 24.181 o
-6 4 28 18.309 15.460 6.471 127.297 o
-6 4 29 2.174 3.939 4.365 408.046 o
-6 4 30 24.619 21.951 4.718 135.939 o
-6 4 31 62.267 57.615 4.156 64.602 o
-6 4 32 197.381 170.812 5.529 19.406 o
-6 4 33 12.786 12.214 2.691 291.978 o
-6 4 34 0.523 0.165 1.553 3109.520 o
-6 4 35 298.074 218.268 9.793 11.818 o
-6 5 1 76.273 36.321 6.719 53.349 o
-6 5 2 4048.310 4600.510 96.508 0.165 o
-6 5 3 2216.230 2474.120 69.835 0.450 o
-6 5 4 6.895 12.809 6.101 180.473 o
-6 5 5 1580.850 1412.630 46.580 0.919 o
-6 5 6 474.181 699.874 29.194 3.679 o
-6 5 7 435.762 466.200 22.761 5.190 o
-6 5 8 327.395 438.283 22.112 6.378 o
-6 5 9 336.486 358.212 23.259 6.493 o
-6 5 10 10431.300 9979.090 237.587 0.031 o
-6 5 11 3953.510 3804.200 101.604 0.183 o
-6 5 12 4195.590 4332.330 190.778 0.115 o
-6 5 13 1230.650 1187.410 41.923 1.280 o
-6 5 14 847.613 807.372 32.679 2.237 o
-6 5 15 12.886 12.523 3.498 253.201 o
-6 5 16 126.728 126.264 8.803 26.109 o
-6 5 17 7352.000 6987.210 166.643 0.060 o
-6 5 18 102.456 83.686 9.114 32.492 o
-6 5 19 340.756 305.503 17.618 7.936 o
-6 5 20 5694.640 5582.440 249.841 0.067 o
-6 5 21 2003.510 1934.260 48.384 0.633 o
-6 5 22 2611.740 2620.250 54.426 0.405 o
-6 5 23 74.557 91.183 5.214 47.127 o
-6 5 24 80.032 83.091 5.049 46.964 o
-6 5 25 4781.030 4840.570 79.859 0.141 o
-6 5 26 241.695 219.377 12.934 12.626 o
-6 5 27 569.401 519.765 14.684 4.734 o
-6 5 28 588.383 588.716 18.968 4.123 o
-6 5 29 298.270 322.146 16.756 8.708 o
-6 5 30 1029.400 1063.170 28.531 1.792 o
-6 5 31 1.758 3.321 3.355 630.772 o
-6 5 32 236.261 231.225 8.990 14.112 o
-6 5 33 947.488 977.645 27.055 2.029 o
-6 5 34 14.603 13.133 1.701 300.070 o
-6 6 1 1276.650 1282.850 29.436 1.343 o
-6 6 2 3286.360 3733.350 69.243 0.250 o
-6 6 3 5407.770 5510.930 180.154 0.088 o
-6 6 4 780.626 614.718 22.604 3.039 o
-6 6 5 1021.500 1045.490 39.694 1.601 o
-6 6 6 95.889 53.211 9.573 35.831 o
-6 6 7 570.155 509.661 25.704 3.947 o
-6 6 8 322.298 271.206 18.386 8.328 o
-6 6 9 2398.210 2619.990 133.920 0.268 o
-6 6 10 353.574 248.673 17.997 8.096 o
-6 6 11 8071.930 7823.910 217.274 0.047 o
-6 6 12 2962.940 3039.610 69.873 0.309 o
-6 6 13 5507.180 5600.640 144.360 0.095 o
-6 6 14 64.073 69.910 6.429 52.308 o
-6 6 15 167.399 200.146 7.884 19.397 o
-6 6 16 497.766 553.359 19.123 4.789 o
-6 6 17 131.468 153.147 8.748 24.068 o
-6 6 18 4299.530 4155.050 106.639 0.159 o
-6 6 19 1652.950 1532.260 57.938 0.776 o
-6 6 20 50.650 65.466 9.476 46.879 o
-6 6 21 1702.370 1741.150 37.328 0.834 o
-6 6 22 1.172 2.871 3.230 719.501 o
-6 6 23 2097.850 2096.820 37.629 0.614 o
-6 6 24 1109.590 1131.520 22.250 1.718 o
-6 6 25 28.182 19.445 5.263 121.461 o
-6 6 26 4967.560 4770.130 111.614 0.126 o
-6 6 27 125.493 134.302 6.424 28.353 o
-6 6 28 164.296 174.071 12.547 17.334 o
-6 6 29 2.391 10.349 3.454 445.593 o
-6 6 30 114.605 115.968 10.263 26.378 o
-6 6 31 1201.210 1147.270 126.448 0.466 o
-6 6 32 172.230 153.091 6.370 21.845 o
-6 6 33 1.153 5.050 3.464 589.914 o
-6 7 1 2065.370 2463.420 63.061 0.499 o
-6 7 2 11414.200 11650.400 511.448 0.017 o
-6 7 3 524.249 591.800 23.040 4.182 o
-6 7 4 7791.660 7561.290 218.339 0.049 o
-6 7 5 3493.850 3452.110 124.150 0.195 o
-6 7 6 847.188 1257.210 47.435 1.518 o
-6 7 7 6372.540 6358.910 181.089 0.071 o
-6 7 8 1094.890 1175.720 45.328 1.355 o
-6 7 9 129.752 118.210 19.725 14.587 o
-6 7 10 988.639 981.881 27.788 1.937 o
-6 7 11 117.066 92.306 7.339 32.029 o
-6 7 12 114.866 92.266 4.751 36.004 o
-6 7 13 226.145 164.605 9.418 16.013 o
-6 7 14 402.056 403.486 12.340 7.196 o
-6 7 15 39.002 33.947 4.636 96.438 o
-6 7 16 1123.450 1114.520 27.815 1.634 o
-6 7 17 0.990 5.087 3.299 638.612 o
-6 7 18 14.138 23.514 4.339 179.128 o
-6 7 19 703.630 723.271 27.648 2.895 o
-6 7 20 40.603 45.522 5.511 80.795 o
-6 7 21 136.657 153.668 13.551 18.859 o
-6 7 22 1540.680 1610.310 36.685 0.957 o
-6 7 23 431.598 446.434 15.206 6.223 o
-6 7 24 111.981 92.439 6.710 33.925 o
-6 7 25 170.327 170.231 10.572 18.508 o
-6 7 26 20.561 24.192 5.011 138.938 o
-6 7 27 117.102 129.816 6.115 30.338 o
-6 7 28 295.645 284.763 19.689 8.317 o
-6 7 29 19.485 26.530 5.457 130.419 o
-6 7 30 25.887 18.296 3.364 161.181 o
-6 7 31 36.973 31.245 5.018 97.927 o
-6 7 32 393.593 297.736 11.976 8.197 o
-6 7 33 32.148 18.749 2.759 146.742 o
-6 8 1 15107.600 15512.100 326.846 0.015 o
-6 8 2 1.588 7.770 7.967 143.275 o
-6 8 3 66.314 60.354 9.288 43.301 o
-6 8 4 4595.670 4919.750 105.320 0.136 o
-6 8 5 86.052 69.776 12.249 29.982 o
-6 8 6 3699.620 3291.140 85.993 0.223 o
-6 8 7 930.480 832.733 25.067 2.254 o
-6 8 8 835.817 809.453 44.101 1.893 o
-6 8 9 10491.100 9632.500 376.594 0.025 o
-6 8 10 282.350 250.633 9.168 11.967 o
-6 8 11 0.512 8.173 2.711 728.777 o
-6 8 12 5.060 15.316 2.943 374.950 o
-6 8 13 25.061 35.136 3.613 133.104 o
-6 8 14 1472.220 1532.700 44.141 0.965 o
-6 8 15 10923.200 11176.800 244.857 0.027 o
-6 8 16 2750.220 2806.750 60.594 0.361 o
-6 8 17 35.768 59.012 5.942 76.009 o
-6 8 18 1947.110 2118.330 47.805 0.624 o
-6 8 19 64.119 74.721 9.661 40.655 o
-6 8 20 4319.170 4480.670 91.050 0.159 o
-6 8 21 168.936 168.780 7.259 20.900 o
-6 8 22 1626.240 1687.640 39.887 0.870 o
-6 8 23 235.238 201.650 10.273 14.309 o
-6 8 24 320.291 300.514 18.367 8.127 o
-6 8 25 988.882 1017.270 60.600 1.238 o
-6 8 26 27.357 36.154 4.066 120.815 o
-6 8 27 644.130 632.018 15.169 3.908 o
-6 8 28 1524.970 1474.820 52.571 0.884 o
-6 8 29 35.912 34.368 5.285 94.729 o
-6 8 30 1173.020 1003.860 108.267 0.596 o
-6 8 31 229.208 178.467 8.292 15.980 o
-6 9 1 144.941 135.792 4.672 26.956 o
-6 9 2 2481.500 2301.140 38.000 0.488 o
-6 9 3 550.646 746.952 18.699 3.917 o
-6 9 4 1629.660 1511.960 25.299 0.999 o
-6 9 5 2.013 6.516 2.619 703.890 o
-6 9 6 4021.480 4057.170 105.553 0.172 o
-6 9 7 13870.400 13883.600 349.464 0.017 o
-6 9 8 362.897 410.657 17.613 6.899 o
-6 9 9 1993.170 2077.430 53.318 0.596 o
-6 9 10 365.707 407.182 15.657 7.201 o
-6 9 11 531.405 525.317 11.574 5.202 o
-6 9 12 2847.480 2849.670 47.563 0.363 o
-6 9 13 3892.090 4206.390 82.964 0.188 o
-6 9 14 226.693 267.870 9.074 13.715 o
-6 9 15 3348.070 3543.210 84.129 0.239 o
-6 9 16 126.006 153.522 11.295 21.950 o
-6 9 17 686.609 706.772 20.801 3.291 o
-6 9 18 1534.120 1512.110 36.636 0.991 o
-6 9 19 745.414 808.765 24.392 2.773 o
-6 9 20 999.326 1010.400 29.136 1.869 o
-6 9 21 1926.260 1933.390 51.027 0.646 o
-6 9 22 45.449 52.267 4.224 80.408 o
-6 9 23 931.304 962.372 30.802 1.986 o
-6 9 24 95.844 95.758 7.408 35.810 o
-6 9 25 184.708 207.496 16.332 13.202 o
-6 9 26 4909.150 4932.710 147.916 0.112 o
-6 9 27 277.678 281.258 10.572 11.273 o
-6 9 28 570.005 585.765 23.741 3.907 o
-6 9 29 228.364 220.830 10.126 14.251 o
-6 9 30 3.702 3.165 2.243 803.966 o
-6 10 1 1078.790 1081.590 18.432 1.853 o
-6 10 2 408.281 442.090 9.604 7.141 o
-6 10 3 4999.270 5201.980 79.422 0.128 o
-6 10 4 7317.560 7308.940 141.973 0.062 o
-6 10 5 1737.190 1773.170 36.597 0.814 o
-6 10 6 1222.400 1159.870 21.453 1.555 o
-6 10 7 583.008 616.658 11.546 4.479 o
-6 10 8 74.763 69.448 6.423 48.023 o
-6 10 9 4115.690 4161.610 77.980 0.181 o
-6 10 10 419.354 427.991 10.425 7.005 o
-6 10 11 3053.260 3186.310 86.485 0.273 o
-6 10 12 6276.880 6644.140 111.653 0.081 o
-6 10 13 727.788 797.635 17.741 3.082 o
-6 10 14 2517.970 2637.350 62.961 0.403 o
-6 10 15 1814.290 1818.890 63.181 0.642 o
-6 10 16 577.888 718.912 25.946 3.432 o
-6 10 17 2510.770 2525.980 68.870 0.400 o
-6 10 18 1288.400 1308.460 46.441 1.131 o
-6 10 19 1162.370 1164.220 32.593 1.488 o
-6 10 20 226.348 227.832 10.881 13.882 o
-6 10 21 544.786 585.713 24.102 4.007 o
-6 10 22 2284.720 2261.970 46.216 0.520 o
-6 10 23 61.388 63.746 4.973 60.382 o
-6 10 24 1343.920 1393.570 57.245 0.953 o
-6 10 25 310.039 283.164 11.123 10.240 o
-6 10 26 186.646 190.088 8.307 18.161 o
-6 10 27 1682.890 1685.040 57.883 0.736 o
-6 10 28 1.957 7.274 3.564 490.791 o
-6 11 1 59.163 92.570 4.623 54.895 o
-6 11 2 202.752 224.672 7.053 16.660 o
-6 11 3 41.007 27.955 2.873 112.061 o
-6 11 4 1368.760 1376.360 25.370 1.249 o
-6 11 5 154.092 156.789 5.945 23.737 o
-6 11 6 1551.560 1642.910 27.903 0.993 o
-6 11 7 3601.910 3740.140 60.492 0.233 o
-6 11 8 164.045 179.684 9.207 19.573 o
-6 11 9 296.218 353.647 9.630 10.024 o
-6 11 10 8.453 16.547 2.798 315.805 o
-6 11 11 1576.050 1622.850 28.525 0.981 o
-6 11 12 68.345 93.032 7.022 44.446 o
-6 11 13 314.645 291.751 9.922 10.277 o
-6 11 14 3035.330 3157.960 140.982 0.207 o
-6 11 15 209.253 244.055 15.917 12.003 o
-6 11 16 0.879 4.202 4.833 369.670 o
-6 11 17 82.983 98.903 7.622 38.011 o
-6 11 18 262.294 279.969 12.297 11.249 o
-6 11 19 260.430 264.046 12.546 11.457 o
-6 11 20 364.780 395.932 27.573 5.334 o
-6 11 21 860.237 882.692 29.740 2.224 o
-6 11 22 12.556 9.133 2.597 320.706 o
-6 11 23 149.392 134.414 6.571 25.070 o
-6 11 24 33.002 31.595 4.373 110.608 o
-6 11 25 1.987 4.219 2.521 830.903 o
-6 11 26 2.190 1.241 2.533 974.516 o
-6 11 27 245.176 180.656 9.046 14.825 o
-6 12 1 150.287 156.014 5.546 24.461 o
-6 12 2 5423.920 5237.960 96.178 0.113 o
-6 12 3 374.837 435.912 8.706 7.779 o
-6 12 4 1421.740 1387.910 21.499 1.223 o
-6 12 5 382.611 412.469 9.324 7.777 o
-6 12 6 241.014 280.166 10.213 12.569 o
-6 12 7 4230.610 4463.370 108.631 0.154 o
-6 12 8 1143.980 1125.040 32.211 1.537 o
-6 12 9 59.753 70.061 4.562 60.885 o
-6 12 10 154.941 189.351 6.773 21.525 o
-6 12 11 281.731 296.928 16.965 9.204 o
-6 12 12 170.272 187.103 10.030 18.319 o
-6 12 13 0.333 0.406 4.658 455.478 o
-6 12 14 807.831 841.096 30.571 2.355 o
-6 12 15 420.308 413.910 16.807 6.327 o
-6 12 16 19.200 17.626 4.922 155.699 o
-6 12 17 10.029 14.291 4.794 212.237 o
-6 12 18 881.502 978.081 27.878 2.135 o
-6 12 19 110.583 118.626 6.241 32.313 o
-6 12 20 382.346 342.858 12.954 7.856 o
-6 12 21 758.583 709.205 16.439 3.175 o
-6 12 22 49.070 45.529 4.183 80.369 o
-6 12 23 41.434 32.553 3.963 99.295 o
-6 12 24 33.620 30.407 4.038 114.036 o
-6 12 25 325.906 285.097 36.073 4.615 o
-6 13 1 634.247 657.020 11.319 4.051 o
-6 13 2 235.350 235.778 8.492 14.223 o
-6 13 3 1124.010 1366.090 28.415 1.471 o
-6 13 4 5.726 12.944 2.689 407.858 o
-6 13 5 362.606 466.532 9.450 7.652 o
-6 13 6 16.261 12.874 2.752 249.138 o
-6 13 7 13.148 12.039 3.030 273.654 o
-6 13 8 1879.210 2151.500 38.665 0.673 o
-6 13 9 523.551 536.534 14.485 5.027 o
-6 13 10 209.011 224.875 7.689 16.060 o
-6 13 11 709.794 806.257 19.969 3.054 o
-6 13 12 108.068 114.765 6.258 33.134 o
-6 13 13 593.616 635.402 21.168 3.837 o
-6 13 14 70.038 49.423 6.272 54.860 o
-6 13 15 128.751 146.680 8.846 24.621 o
-6 13 16 586.638 658.495 20.948 3.828 o
-6 13 17 12.333 15.494 4.462 206.798 o
-6 13 18 18.214 19.565 4.452 166.948 o
-6 13 19 55.673 64.980 4.614 64.917 o
-6 13 20 56.860 54.665 3.974 70.266 o
-6 13 21 1.137 2.641 2.035 1326.670 o
-6 13 22 375.412 335.361 10.261 8.444 o
-6 13 23 147.797 148.399 18.448 14.301 o
-6 13 24 195.305 149.250 7.136 19.629 o
-6 14 1 1283.410 1513.010 48.093 1.048 o
-6 14 2 2.405 3.066 2.799 754.507 o
-6 14 3 354.616 371.525 8.938 8.677 o
-6 14 4 350.141 350.384 8.045 9.096 o
-6 14 5 110.165 151.082 5.221 30.637 o
-6 14 6 3648.050 4000.110 54.662 0.224 o
-6 14 7 560.227 651.656 13.241 4.432 o
-6 14 8 755.423 770.713 20.915 2.926 o
-6 14 9 952.736 1026.500 23.775 2.042 o
-6 14 10 2232.870 2406.670 66.233 0.463 o
-6 14 11 857.465 918.774 22.998 2.373 o
-6 14 12 615.958 665.095 17.146 3.874 o
-6 14 13 2079.360 2242.790 55.660 0.544 o
-6 14 14 2368.300 2473.060 68.728 0.427 o
-6 14 15 561.491 593.648 15.054 4.513 o
-6 14 16 224.362 236.562 9.898 14.174 o
-6 14 17 275.045 300.081 8.961 11.468 o
-6 14 18 439.102 439.017 13.716 6.347 o
-6 14 19 478.128 465.695 13.716 5.796 o
-6 14 20 1551.580 1342.790 45.312 0.964 o
-6 14 21 1.029 1.356 2.559 1133.770 o
-6 15 1 5.330 20.760 3.836 270.859 o
-6 15 2 3.265 4.896 3.086 573.314 o
-6 15 3 11.015 9.681 2.845 326.176 o
-6 15 4 216.972 227.534 7.488 15.643 o
-6 15 5 1083.190 1237.860 23.511 1.664 o
-6 15 6 1448.370 1448.700 27.750 1.135 o
-6 15 7 1248.770 1349.430 28.970 1.342 o
-6 15 8 34.970 30.168 3.916 112.846 o
-6 15 9 325.940 364.303 30.346 5.284 o
-6 15 10 12.722 11.516 3.492 259.872 o
-6 15 11 527.113 521.352 44.791 2.680 o
-6 15 12 203.421 219.688 9.706 15.629 o
-6 15 13 24.608 30.478 3.681 139.999 o
-6 15 14 79.960 90.594 4.753 46.236 o
-6 15 15 2754.390 2822.840 53.788 0.370 o
-6 15 16 39.147 52.079 3.459 92.057 o
-6 15 17 6.500 10.143 2.115 477.952 o
-6 15 18 165.262 113.456 5.694 25.093 o
-6 16 1 168.531 209.614 9.712 17.901 o
-6 16 2 220.942 223.550 7.772 15.440 o
-6 16 3 1526.750 1740.990 49.993 0.840 o
-6 16 4 0.854 1.483 2.928 940.012 o
-6 16 5 28.688 32.381 3.518 128.419 o
-6 16 6 1.384 0.906 2.706 1024.260 o
-6 16 7 57.171 39.988 3.548 78.112 o
-6 16 8 394.627 434.662 11.071 7.232 o
-6 16 9 372.978 394.457 12.913 7.607 o
-6 16 10 94.023 77.382 4.531 44.079 o
-6 16 11 865.377 891.740 33.315 2.102 o
-6 16 12 26.239 14.210 4.407 148.277 o
-6 16 13 31.998 25.414 4.438 117.990 o
-6 16 14 19.770 13.831 2.503 223.603 o
-6 16 15 376.840 288.060 8.409 9.141 o
-6 17 1 1577.910 1682.010 80.491 0.628 o
-6 17 2 1361.020 1392.130 31.912 1.194 o
-6 17 3 42.664 51.414 4.482 82.286 o
-6 17 4 1639.210 1629.290 81.175 0.615 o
-6 17 5 43.322 30.004 5.202 88.694 o
-6 17 6 78.317 79.704 4.420 49.649 o
-6 17 7 109.503 115.712 9.411 28.294 o
-6 17 8 71.271 56.044 3.583 61.060 o
-6 17 9 31.337 34.561 2.864 125.850 o
-6 17 10 235.052 181.129 16.578 11.874 o
-6 18 1 519.456 384.954 14.211 5.742 o
-5 -14 4 167.423 116.280 6.495 24.108 o
-5 -14 5 544.457 460.786 12.402 5.312 o
-5 -14 6 37.866 29.906 3.722 109.417 o
-5 -14 7 993.892 856.685 30.179 1.984 o
-5 -14 8 0.019 1.722 1.834 2205.530 o
-5 -14 9 1691.190 1126.310 38.227 1.001 o
-5 -14 10 558.404 414.049 16.062 5.113 o
-5 -13 1 223.081 214.304 6.933 15.864 o
-5 -13 2 290.418 281.611 8.357 11.416 o
-5 -13 3 45.485 44.883 3.035 90.735 o
-5 -13 4 77.032 74.137 5.109 49.737 o
-5 -13 5 40.497 39.647 3.135 101.017 o
-5 -13 6 261.721 247.513 23.803 7.956 o
-5 -13 7 2240.760 2365.460 66.139 0.465 o
-5 -13 8 1383.750 1250.070 35.798 1.197 o
-5 -13 9 100.338 113.388 5.129 36.438 o
-5 -13 10 2.957 0.236 2.386 1006.890 o
-5 -13 11 87.641 82.980 3.927 46.338 o
-5 -13 12 48.006 58.739 3.439 78.359 o
-5 -13 13 1961.190 1894.810 32.244 0.711 o
-5 -13 14 0.177 1.792 3.202 866.596 o
-5 -13 15 1142.910 1051.880 37.500 1.497 o
-5 -13 16 457.046 429.672 17.792 5.753 o
-5 -13 17 0.918 0.502 2.550 1247.930 o
-5 -13 18 74.997 65.962 3.798 55.699 o
-5 -12 1 32.394 33.006 3.109 122.977 o
-5 -12 2 42.912 53.287 3.659 85.591 o
-5 -12 3 24.596 17.168 2.956 176.188 o
-5 -12 4 586.527 576.173 11.667 4.586 o
-5 -12 5 241.345 240.079 6.144 14.552 o
-5 -12 6 2.196 6.828 2.673 668.026 o
-5 -12 7 6.371 6.386 2.665 485.424 o
-5 -12 8 361.353 349.738 13.782 8.004 o
-5 -12 9 129.739 131.930 5.699 28.595 o
-5 -12 10 99.273 115.888 6.460 34.503 o
-5 -12 11 58.140 50.207 4.178 70.211 o
-5 -12 12 556.270 573.609 13.153 4.729 o
-5 -12 13 1087.770 1060.330 20.749 1.826 o
-5 -12 14 33.550 29.180 4.789 107.377 o
-5 -12 15 40.544 36.253 4.040 97.287 o
-5 -12 16 540.000 502.414 22.356 4.404 o
-5 -12 17 163.576 175.936 16.353 14.604 o
-5 -12 18 12.022 12.965 5.353 183.145 o
-5 -12 19 1069.590 925.434 34.653 1.717 o
-5 -12 20 77.595 75.114 4.833 49.967 o
-5 -12 21 105.439 96.889 7.015 34.328 o
-5 -12 22 408.190 350.086 14.491 7.188 o
-5 -12 23 36.920 29.572 3.185 116.191 o
-5 -11 1 8.153 16.850 3.637 272.296 o
-5 -11 2 166.880 144.337 4.903 23.651 o
-5 -11 3 127.204 124.745 4.285 30.795 o
-5 -11 4 181.277 180.407 5.125 20.473 o
-5 -11 5 57.307 65.312 3.470 67.613 o
-5 -11 6 118.935 106.063 4.110 34.293 o
-5 -11 7 451.606 411.225 8.623 6.847 o
-5 -11 8 294.305 284.566 7.358 11.453 o
-5 -11 9 1388.740 1344.190 33.375 1.178 o
-5 -11 10 111.639 120.138 5.417 32.970 o
-5 -11 11 627.311 628.059 17.264 3.905 o
-5 -11 12 341.664 367.977 9.535 8.883 o
-5 -11 13 473.483 493.769 12.624 5.798 o
-5 -11 14 225.279 255.403 8.449 14.249 o
-5 -11 15 33.810 32.272 3.342 118.509 o
-5 -11 16 416.292 447.404 8.313 7.106 o
-5 -11 17 2.447 7.074 2.367 714.301 o
-5 -11 18 87.018 95.210 4.562 43.404 o
-5 -11 19 234.049 245.444 6.377 14.706 o
-5 -11 20 6.361 8.566 2.395 480.268 o
-5 -11 21 248.088 244.943 6.010 14.170 o
-5 -11 22 109.401 112.861 4.286 35.441 o
-5 -11 23 0.462 3.199 2.012 1452.950 o
-5 -11 24 98.221 85.099 3.827 42.576 o
-5 -11 25 22.310 17.264 2.737 191.510 o
-5 -11 26 41.125 29.480 2.564 112.422 o
-5 -10 1 196.725 200.204 5.333 18.460 o
-5 -10 2 441.694 419.481 7.449 7.014 o
-5 -10 3 1565.950 1642.040 20.000 1.022 o
-5 -10 4 1448.200 1428.630 18.831 1.198 o
-5 -10 5 290.948 297.606 6.422 11.521 o
-5 -10 6 13.513 15.546 2.159 283.912 o
-5 -10 7 39.611 43.776 3.033 99.795 o
-5 -10 8 307.411 335.239 7.180 10.393 o
-5 -10 9 95.239 98.912 3.686 41.566 o
-5 -10 10 42.916 64.407 2.995 82.468 o
-5 -10 11 12.709 16.381 2.311 283.115 o
-5 -10 12 4.323 6.989 2.335 606.912 o
-5 -10 13 655.335 587.121 10.443 4.163 o
-5 -10 14 219.911 200.345 5.328 16.955 o
-5 -10 15 1324.460 1429.760 23.627 1.278 o
-5 -10 16 82.377 80.624 4.256 48.173 o
-5 -10 17 57.097 48.679 3.557 74.151 o
-5 -10 18 1071.280 1092.100 15.363 1.893 o
-5 -10 19 159.621 154.234 5.105 23.790 o
-5 -10 20 1185.290 1142.520 18.061 1.649 o
-5 -10 21 1219.930 1185.540 18.375 1.571 o
-5 -10 22 1.539 6.970 2.577 733.103 o
-5 -10 23 1251.230 1312.760 27.734 1.371 o
-5 -10 24 10.723 9.043 2.910 331.779 o
-5 -10 25 115.980 114.340 7.104 30.627 o
-5 -10 26 35.194 27.913 3.700 116.775 o
-5 -10 27 99.848 104.256 5.303 37.399 o
-5 -10 28 9.467 8.652 2.993 350.687 o
-5 -9 1 2.216 6.615 2.694 668.579 o
-5 -9 2 743.283 790.659 11.768 3.208 o
-5 -9 3 21.579 22.112 2.619 184.809 o
-5 -9 4 343.096 366.223 7.301 9.170 o
-5 -9 5 1321.140 1342.050 17.450 1.368 o
-5 -9 6 1068.670 1070.990 13.623 1.934 o
-5 -9 7 2128.940 2030.260 25.243 0.645 o
-5 -9 8 4528.280 4544.570 46.085 0.165 o
-5 -9 9 355.885 421.474 6.261 8.470 o
-5 -9 10 509.553 545.699 7.672 5.516 o
-5 -9 11 1123.930 1224.300 14.164 1.713 o
-5 -9 12 11.184 15.144 2.395 306.962 o
-5 -9 13 953.949 993.033 13.065 2.251 o
-5 -9 14 25.822 31.692 2.463 149.576 o
-5 -9 15 90.668 86.608 3.597 45.128 o
-5 -9 16 2051.910 2188.280 30.150 0.633 o
-5 -9 17 481.855 485.002 8.934 6.028 o
-5 -9 18 50.554 47.256 3.065 83.198 o
-5 -9 19 355.369 328.786 6.804 9.369 o
-5 -9 20 882.933 860.945 13.889 2.583 o
-5 -9 21 542.645 547.607 10.585 5.075 o
-5 -9 22 70.793 87.852 3.957 52.114 o
-5 -9 23 13.741 16.682 2.860 251.107 o
-5 -9 24 1095.420 1165.940 20.906 1.730 o
-5 -9 25 109.381 114.467 4.885 34.613 o
-5 -9 26 20.566 29.000 6.731 104.941 o
-5 -9 27 1.562 3.521 3.006 737.993 o
-5 -9 28 362.192 346.282 11.303 8.429 o
-5 -9 29 178.995 161.396 5.477 21.332 o
-5 -9 30 99.532 98.739 4.235 39.666 o
-5 -8 1 45.212 40.024 3.385 92.429 o
-5 -8 2 712.360 759.493 11.890 3.395 o
-5 -8 3 820.631 844.423 14.429 2.781 o
-5 -8 4 73.604 74.339 3.459 55.022 o
-5 -8 5 27.037 32.579 2.515 143.661 o
-5 -8 6 249.062 246.565 4.948 14.321 o
-5 -8 7 65.266 59.700 2.819 65.697 o
-5 -8 8 0.238 1.629 1.790 2162.160 o
-5 -8 9 661.206 617.452 7.395 4.130 o
-5 -8 10 1064.690 984.823 10.059 2.056 o
-5 -8 11 53.062 44.877 2.257 84.691 o
-5 -8 12 17.957 8.801 1.920 279.039 o
-5 -8 13 1160.700 1205.470 15.211 1.665 o
-5 -8 14 344.706 358.973 5.642 9.395 o
-5 -8 15 829.868 820.402 9.333 2.885 o
-5 -8 16 8.221 8.847 1.894 462.797 o
-5 -8 17 662.497 613.530 8.814 4.096 o
-5 -8 18 348.479 331.052 6.022 9.586 o
-5 -8 19 727.931 695.153 9.246 3.535 o
-5 -8 20 312.496 331.751 5.634 10.517 o
-5 -8 21 33.948 34.202 2.580 122.463 o
-5 -8 22 946.583 1029.520 13.327 2.223 o
-5 -8 23 196.790 184.507 4.692 19.246 o
-5 -8 24 152.699 158.429 4.486 24.672 o
-5 -8 25 6.558 11.841 2.218 441.132 o
-5 -8 26 15.752 22.919 2.698 215.113 o
-5 -8 27 893.488 942.262 21.758 2.292 o
-5 -8 28 61.844 74.884 4.080 59.709 o
-5 -8 29 44.574 33.308 2.903 100.981 o
-5 -8 30 208.679 232.596 9.396 15.184 o
-5 -8 31 0.412 0.621 1.980 2060.130 o
-5 -8 32 152.154 135.740 4.993 25.807 o
-5 -7 1 115.359 120.246 4.784 32.923 o
-5 -7 2 4143.380 4047.160 47.613 0.196 o
-5 -7 3 82.728 80.484 3.559 49.325 o
-5 -7 4 337.828 313.161 6.978 9.934 o
-5 -7 5 12.379 19.083 2.208 275.023 o
-5 -7 6 229.296 258.670 5.160 14.918 o
-5 -7 7 222.605 222.463 4.085 16.465 o
-5 -7 8 47.980 66.525 2.172 78.863 o
-5 -7 9 0.807 5.063 1.497 1441.980 o
-5 -7 10 208.781 215.649 3.947 17.544 o
-5 -7 11 11.379 7.626 1.375 423.051 o
-5 -7 12 172.460 143.555 2.805 23.980 o
-5 -7 13 597.040 496.737 5.760 5.037 o
-5 -7 14 0.247 1.553 1.425 2910.600 o
-5 -7 15 1410.530 1332.530 12.361 1.308 o
-5 -7 16 57.505 63.976 2.280 71.194 o
-5 -7 17 784.724 707.170 8.605 3.275 o
-5 -7 18 49.623 50.620 2.519 84.458 o
-5 -7 19 0.198 0.398 1.849 2563.140 o
-5 -7 20 1310.890 1394.190 16.311 1.359 o
-5 -7 21 209.598 198.109 4.787 17.837 o
-5 -7 22 789.965 733.255 10.512 3.165 o
-5 -7 23 112.327 139.952 3.973 32.358 o
-5 -7 24 226.145 219.532 6.595 15.675 o
-5 -7 25 307.448 356.087 6.596 10.207 o
-5 -7 26 1472.410 1566.070 21.881 1.107 o
-5 -7 27 516.431 591.165 12.292 5.013 o
-5 -7 28 105.810 102.046 4.220 37.624 o
-5 -7 29 2.826 4.189 2.389 794.847 o
-5 -7 30 50.958 50.423 3.552 79.063 o
-5 -7 31 567.139 516.241 25.037 3.998 o
-5 -7 32 204.001 159.635 7.450 18.459 o
-5 -7 33 442.617 432.352 16.536 6.027 o
-5 -6 1 2043.470 2024.180 23.162 0.680 o
-5 -6 2 2315.760 2409.130 26.442 0.533 o
-5 -6 3 750.135 714.290 10.218 3.372 o
-5 -6 4 3064.710 2933.500 26.980 0.347 o
-5 -6 5 1718.650 1774.910 18.376 0.894 o
-5 -6 6 4.715 7.101 1.423 726.067 o
-5 -6 7 421.762 425.859 5.985 7.352 o
-5 -6 8 201.496 196.701 4.136 18.628 o
-5 -6 9 212.937 204.821 3.390 17.750 o
-5 -6 10 98.771 105.957 2.251 40.904 o
-5 -6 11 451.842 449.114 4.705 6.833 o
-5 -6 12 67.073 78.228 2.034 60.044 o
-5 -6 13 531.455 512.090 5.441 5.556 o
-5 -6 14 475.448 446.375 4.897 6.540 o
-5 -6 15 368.117 358.782 4.398 8.996 o
-5 -6 16 5154.620 5011.470 38.448 0.135 o
-5 -6 17 1515.580 1427.230 13.171 1.166 o
-5 -6 18 48.700 54.820 2.579 82.947 o
-5 -6 19 1151.570 1186.770 15.153 1.692 o
-5 -6 20 82.935 97.253 3.400 46.265 o
-5 -6 21 110.597 139.033 4.034 32.724 o
-5 -6 22 302.493 302.602 6.371 11.105 o
-5 -6 23 1823.660 1825.980 21.558 0.817 o
-5 -6 24 3204.540 3331.290 36.151 0.301 o
-5 -6 25 63.944 64.450 3.131 64.213 o
-5 -6 26 63.432 60.925 3.531 64.660 o
-5 -6 27 16.087 19.686 4.013 187.916 o
-5 -6 28 140.712 130.867 6.180 26.701 o
-5 -6 29 52.410 62.178 5.210 65.659 o
-5 -6 30 71.820 82.945 4.539 51.454 o
-5 -6 31 795.308 858.804 15.056 2.824 o
-5 -6 32 0.690 1.502 2.012 1666.790 o
-5 -6 33 3.375 4.825 1.663 913.683 o
-5 -6 34 363.892 324.672 12.823 8.340 o
-5 -5 1 5178.950 5144.580 51.756 0.130 o
-5 -5 2 7167.030 6901.870 68.818 0.072 o
-5 -5 3 11213.100 10814.300 138.320 0.030 o
-5 -5 4 518.546 492.941 7.535 5.689 o
-5 -5 5 1073.880 988.588 11.349 2.023 o
-5 -5 6 3218.580 2901.670 30.479 0.328 o
-5 -5 7 785.886 765.492 11.827 3.092 o
-5 -5 8 2001.690 1877.270 20.661 0.730 o
-5 -5 9 2959.170 2684.720 25.549 0.381 o
-5 -5 10 1149.000 1135.930 10.358 1.770 o
-5 -5 11 6463.920 6172.790 44.127 0.090 o
-5 -5 12 1266.820 1199.520 10.516 1.555 o
-5 -5 13 9.666 11.960 1.219 418.407 o
-5 -5 14 433.554 493.782 5.873 6.724 o
-5 -5 15 132.611 136.877 2.549 29.927 o
-5 -5 16 2332.980 2347.110 18.806 0.547 o
-5 -5 17 5491.730 5389.320 42.255 0.119 o
-5 -5 18 820.232 840.203 9.718 2.878 o
-5 -5 19 4172.780 4090.930 36.943 0.196 o
-5 -5 20 5774.050 5870.880 53.611 0.105 o
-5 -5 21 1346.950 1290.490 14.178 1.387 o
-5 -5 22 2279.150 2332.230 26.614 0.553 o
-5 -5 23 82.864 85.791 3.347 48.544 o
-5 -5 24 339.461 374.155 6.763 9.226 o
-5 -5 25 11217.900 11371.300 135.151 0.029 o
-5 -5 26 954.245 996.323 14.606 2.225 o
-5 -5 27 27.472 28.866 2.819 144.822 o
-5 -5 28 331.196 307.138 7.810 10.050 o
-5 -5 29 1.665 3.553 2.813 792.232 o
-5 -5 30 423.231 490.250 10.632 6.538 o
-5 -5 31 6.020 10.389 2.702 431.621 o
-5 -5 32 483.327 561.541 10.748 5.517 o
-5 -5 33 26.356 25.472 2.405 159.464 o
-5 -5 34 91.088 90.964 2.883 45.147 o
-5 -5 35 65.552 68.138 4.979 56.823 o
-5 -4 1 3217.900 3128.700 66.698 0.284 o
-5 -4 2 5916.430 5665.890 132.259 0.091 o
-5 -4 3 1070.330 1047.180 28.492 1.744 o
-5 -4 4 5200.860 5044.130 89.581 0.122 o
-5 -4 5 1645.610 1935.290 62.625 0.678 o
-5 -4 6 8.858 18.844 10.057 79.952 o
-5 -4 7 1297.810 1090.560 32.895 1.379 o
-5 -4 8 2357.670 2080.810 42.610 0.533 o
-5 -4 9 9465.600 8848.570 202.398 0.038 o
-5 -4 10 2205.180 1951.250 64.183 0.521 o
-5 -4 11 1543.880 1491.120 53.382 0.865 o
-5 -4 12 9337.580 9171.190 99.657 0.043 o
-5 -4 13 201.308 176.376 3.314 19.618 o
-5 -4 14 558.357 585.016 6.388 4.974 o
-5 -4 15 1222.290 1122.190 9.963 1.672 o
-5 -4 16 488.143 483.379 5.364 6.153 o
-5 -4 17 50.042 59.957 1.910 80.766 o
-5 -4 18 885.014 868.433 8.920 2.642 o
-5 -4 19 191.521 193.137 4.198 19.479 o
-5 -4 20 128.678 141.868 3.683 29.551 o
-5 -4 21 231.770 260.514 4.520 14.888 o
-5 -4 22 1475.850 1557.500 15.944 1.135 o
-5 -4 23 7430.870 7224.550 65.360 0.067 o
-5 -4 24 187.600 178.292 4.597 20.245 o
-5 -4 25 71.359 85.027 3.430 53.567 o
-5 -4 26 1866.880 1864.020 24.447 0.780 o
-5 -4 27 134.167 142.959 4.583 28.026 o
-5 -4 28 860.596 917.761 14.785 2.550 o
-5 -4 29 188.960 201.108 6.194 18.638 o
-5 -4 30 517.175 527.750 9.659 5.428 o
-5 -4 31 1297.820 1475.520 24.750 1.273 o
-5 -4 32 116.595 110.749 5.576 32.736 o
-5 -4 33 34.249 29.862 2.503 127.506 o
-5 -4 34 12.756 16.867 2.284 280.712 o
-5 -4 35 616.078 586.182 50.079 2.169 o
-5 -3 1 1529.300 1385.690 29.753 1.084 o
-5 -3 2 205.321 181.260 6.999 17.857 o
-5 -3 3 12.482 24.475 5.344 157.217 o
-5 -3 4 133.884 139.312 7.602 25.718 o
-5 -3 5 55.321 34.988 5.406 72.769 o
-5 -3 6 2121.880 2060.080 83.883 0.458 o
-5 -3 7 24.661 35.348 4.219 126.071 o
-5 -3 8 2670.430 3135.770 59.844 0.351 o
-5 -3 9 1208.960 1095.800 28.533 1.528 o
-5 -3 10 785.525 610.692 25.748 2.899 o
-5 -3 11 1016.600 973.523 31.203 1.829 o
-5 -3 12 719.958 817.262 31.297 2.563 o
-5 -3 13 350.418 338.171 16.942 7.681 o
-5 -3 14 80.771 68.942 4.497 50.706 o
-5 -3 15 811.156 827.533 9.656 2.932 o
-5 -3 16 848.809 704.593 8.176 3.039 o
-5 -3 17 95.231 84.464 2.278 45.460 o
-5 -3 18 84.548 86.943 2.343 48.965 o
-5 -3 19 396.711 416.949 5.906 7.820 o
-5 -3 20 370.636 372.093 5.661 8.713 o
-5 -3 21 135.499 166.948 4.104 26.483 o
-5 -3 22 2446.980 2289.560 25.028 0.518 o
-5 -3 23 450.942 472.703 8.106 6.505 o
-5 -3 24 5000.630 5046.330 57.456 0.136 o
-5 -3 25 74.942 71.919 3.807 54.222 o
-5 -3 26 528.327 558.909 9.239 5.216 o
-5 -3 27 1.746 4.842 2.556 812.377 o
-5 -3 28 385.985 387.325 8.292 8.040 o
-5 -3 29 7877.220 8334.900 94.907 0.056 o
-5 -3 30 39.702 43.537 3.320 98.099 o
-5 -3 31 582.196 587.974 10.154 4.644 o
-5 -3 32 221.433 241.262 6.021 15.528 o
-5 -3 33 78.288 83.007 3.997 49.839 o
-5 -3 34 1750.510 1789.420 30.616 0.830 o
-5 -3 35 19.118 18.200 3.073 199.655 o
-5 -3 36 811.756 664.977 69.778 1.289 o
-5 -2 1 3619.870 3377.530 50.322 0.252 o
-5 -2 2 1320.600 1366.280 25.632 1.296 o
-5 -2 3 1549.530 1440.070 26.529 1.071 o
-5 -2 4 3778.250 3704.010 83.120 0.208 o
-5 -2 5 2800.340 2751.960 97.247 0.298 o
-5 -2 6 618.739 530.378 20.766 4.001 o
-5 -2 7 262.552 230.277 8.426 13.236 o
-5 -2 8 848.321 720.638 17.587 2.811 o
-5 -2 9 854.936 668.806 16.620 2.900 o
-5 -2 10 353.260 420.965 22.559 6.128 o
-5 -2 11 379.671 461.305 17.840 6.372 o
-5 -2 12 4369.610 4420.840 89.562 0.159 o
-5 -2 13 124.040 116.919 7.375 28.810 o
-5 -2 14 4367.260 4381.720 105.743 0.152 o
-5 -2 15 93.769 91.875 6.767 37.955 o
-5 -2 16 6565.670 6324.500 68.948 0.085 o
-5 -2 17 3623.330 3576.760 36.238 0.251 o
-5 -2 18 868.550 782.457 9.672 2.815 o
-5 -2 19 997.327 1004.100 14.064 2.132 o
-5 -2 20 661.020 644.883 9.481 3.995 o
-5 -2 21 171.208 204.088 4.807 20.454 o
-5 -2 22 10364.800 10103.800 116.265 0.035 o
-5 -2 23 8.813 11.864 2.297 380.251 o
-5 -2 24 165.899 155.189 4.689 23.290 o
-5 -2 25 107.315 120.339 4.232 35.133 o
-5 -2 26 34.285 32.863 2.806 121.452 o
-5 -2 27 98.950 146.843 4.655 33.671 o
-5 -2 28 262.588 253.742 7.255 13.092 o
-5 -2 29 7.542 13.792 2.744 356.484 o
-5 -2 30 1069.910 1148.010 18.688 1.811 o
-5 -2 31 269.209 272.724 6.241 12.710 o
-5 -2 32 29.929 20.946 2.635 151.959 o
-5 -2 33 5.465 4.802 2.333 604.594 o
-5 -2 34 2.498 3.248 2.422 862.550 o
-5 -2 35 155.874 166.921 7.726 21.825 o
-5 -2 36 0.042 0.814 2.502 1480.640 o
-5 -1 1 15793.600 15268.700 398.064 0.013 o
-5 -1 2 12951.300 14213.100 229.541 0.020 o
-5 -1 3 104.491 62.586 5.455 41.475 o
-5 -1 4 20380.800 19850.400 366.195 0.009 o
-5 -1 5 707.562 833.071 37.701 2.317 o
-5 -1 6 4846.850 4816.590 114.698 0.127 o
-5 -1 7 20.547 35.086 6.099 108.830 o
-5 -1 8 2376.870 2220.820 49.569 0.496 o
-5 -1 9 14112.900 13280.300 245.084 0.018 o
-5 -1 10 1275.450 1348.300 53.407 1.046 o
-5 -1 11 1891.880 1872.670 83.038 0.521 o
-5 -1 12 15942.700 15376.600 368.237 0.013 o
-5 -1 13 7.439 12.003 3.640 310.599 o
-5 -1 14 128.368 141.626 16.011 17.398 o
-5 -1 15 4128.820 3820.280 119.793 0.164 o
-5 -1 16 147.164 128.142 11.863 20.655 o
-5 -1 17 2563.080 2409.250 34.211 0.466 o
-5 -1 18 4033.390 3835.740 41.725 0.211 o
-5 -1 19 9519.540 8933.530 97.654 0.042 o
-5 -1 20 2262.150 2163.150 27.716 0.579 o
-5 -1 21 2322.620 2330.720 29.143 0.537 o
-5 -1 22 1829.300 1835.270 23.850 0.806 o
-5 -1 23 697.187 671.039 12.101 3.659 o
-5 -1 24 49.592 62.417 3.480 75.009 o
-5 -1 25 1158.420 1089.200 16.847 1.739 o
-5 -1 26 4.573 4.846 2.410 639.066 o
-5 -1 27 197.244 193.517 4.741 18.863 o
-5 -1 28 2.495 4.175 2.207 886.596 o
-5 -1 29 4.259 2.380 2.974 609.709 o
-5 -1 30 137.635 140.219 5.048 27.392 o
-5 -1 31 631.446 665.533 11.927 4.021 o
-5 -1 32 1.603 2.026 3.284 701.535 o
-5 -1 33 107.846 116.358 4.814 34.819 o
-5 -1 34 23.212 24.290 2.877 167.925 o
-5 -1 35 37.049 31.136 3.328 113.166 o
-5 -1 36 139.338 130.452 11.245 21.843 o
-5 0 1 1803.270 1640.030 31.739 0.836 o
-5 0 2 5759.690 5991.730 127.613 0.092 o
-5 0 3 4282.520 3916.170 90.066 0.173 o
-5 0 4 5009.430 5442.300 128.008 0.111 o
-5 0 5 62355.800 62135.100 1376.640 0.001 o
-5 0 6 2420.860 2789.610 48.786 0.433 o
-5 0 7 1181.760 1218.970 31.643 1.449 o
-5 0 8 9069.150 9739.960 223.539 0.037 o
-5 0 9 3695.870 3530.400 114.847 0.192 o
-5 0 10 9505.770 8682.250 288.526 0.033 o
-5 0 11 7.510 27.994 9.455 84.516 o
-5 0 12 41.134 59.096 10.959 44.877 o
-5 0 13 16858.000 14319.300 499.379 0.011 o
-5 0 14 0.526 10.559 2.456 706.156 o
-5 0 15 968.164 1033.080 63.869 1.188 o
-5 0 16 1688.300 1472.690 39.595 0.895 o
-5 0 17 0.075 0.447 2.746 1283.520 o
-5 0 18 4674.330 4444.850 60.968 0.157 o
-5 0 19 5346.530 5145.990 75.446 0.121 o
-5 0 20 570.461 622.856 10.515 4.589 o
-5 0 21 27.773 50.959 3.814 107.837 o
-5 0 22 6.573 8.288 2.325 485.391 o
-5 0 23 1062.360 1024.300 14.741 1.976 o
-5 0 24 4958.510 4965.360 80.945 0.133 o
-5 0 25 333.209 325.170 7.761 9.791 o
-5 0 26 319.824 305.309 7.389 10.428 o
-5 0 27 126.249 113.396 4.241 32.015 o
-5 0 28 176.210 175.667 5.324 21.020 o
-5 0 29 940.655 933.161 15.980 2.307 o
-5 0 30 31.924 41.969 4.114 105.787 o
-5 0 31 379.782 383.721 12.103 7.701 o
-5 0 32 154.622 163.461 6.191 23.170 o
-5 0 33 86.546 72.941 4.575 47.419 o
-5 0 34 114.589 110.907 5.274 33.462 o
-5 0 35 3.943 5.082 3.149 528.410 o
-5 0 36 15.789 15.731 3.318 222.736 o
-5 1 1 13859.800 15080.300 781.051 0.009 o
-5 1 2 3870.300 4203.190 124.699 0.163 o
-5 1 3 14677.400 13704.200 345.655 0.016 o
-5 1 4 3341.720 3787.080 90.906 0.225 o
-5 1 5 2081.530 1992.400 144.654 0.287 o
-5 1 6 2710.810 2106.060 157.747 0.224 o
-5 1 7 1046.340 1141.780 51.881 1.302 o
-5 1 8 6895.710 7060.470 237.807 0.054 o
-5 1 9 12269.200 12718.900 413.473 0.018 o
-5 1 10 1678.710 1659.470 68.704 0.675 o
-5 1 11 1265.760 1464.180 62.159 0.924 o
-5 1 12 232.911 244.253 12.618 12.625 o
-5 1 13 881.577 892.102 24.617 2.307 o
-5 1 14 2631.510 2459.600 113.061 0.297 o
-5 1 15 2055.550 1680.900 115.427 0.385 o
-5 1 16 2008.780 1680.800 69.919 0.575 o
-5 1 17 26.434 28.256 5.476 112.922 o
-5 1 18 1379.940 1276.890 32.579 1.220 o
-5 1 19 1031.210 1013.950 18.637 1.993 o
-5 1 20 11.672 9.659 2.478 336.836 o
-5 1 21 178.414 184.619 5.867 20.206 o
-5 1 22 3407.650 3092.850 41.377 0.289 o
-5 1 23 97.239 92.047 4.575 40.768 o
-5 1 24 83.027 84.960 4.458 46.720 o
-5 1 25 750.404 783.879 15.366 3.099 o
-5 1 26 1157.400 1124.120 22.874 1.648 o
-5 1 27 588.098 549.491 17.381 4.340 o
-5 1 28 964.509 1023.610 18.477 2.116 o
-5 1 29 125.127 115.995 5.517 30.784 o
-5 1 30 961.628 976.073 27.816 1.989 o
-5 1 31 652.643 649.252 17.008 3.737 o
-5 1 32 90.700 81.959 5.146 43.303 o
-5 1 33 352.008 368.909 13.217 8.097 o
-5 1 34 0.412 6.159 4.117 464.661 o
-5 1 35 871.672 966.785 33.483 2.019 o
-5 1 36 315.865 320.279 13.676 9.117 o
-5 2 1 18546.000 19548.800 1081.350 0.005 o
-5 2 2 15211.000 16880.600 584.087 0.010 o
-5 2 3 4651.350 4378.900 152.803 0.122 o
-5 2 4 15.404 13.862 2.581 258.327 o
-5 2 5 1696.910 1754.700 39.117 0.824 o
-5 2 6 829.682 884.058 29.727 2.287 o
-5 2 7 18993.600 20412.000 643.291 0.007 o
-5 2 8 10014.100 10073.900 228.644 0.032 o
-5 2 9 399.423 304.122 26.959 5.516 o
-5 2 10 3294.740 3385.360 84.211 0.249 o
-5 2 11 9.623 12.156 4.319 245.398 o
-5 2 12 2057.680 2533.470 61.108 0.500 o
-5 2 13 381.679 303.966 24.731 6.043 o
-5 2 14 2007.090 1726.130 127.864 0.348 o
-5 2 15 1870.500 1666.260 49.561 0.717 o
-5 2 16 947.256 864.084 25.729 2.169 o
-5 2 17 84.279 137.128 10.216 29.122 o
-5 2 18 366.580 429.787 11.215 7.667 o
-5 2 19 12.008 23.680 2.817 237.098 o
-5 2 20 902.598 932.802 16.857 2.383 o
-5 2 21 19.212 14.476 3.022 211.966 o
-5 2 22 2146.870 1971.680 35.312 0.625 o
-5 2 23 1189.900 1146.420 22.785 1.591 o
-5 2 24 134.178 124.968 5.123 28.955 o
-5 2 25 517.724 492.568 10.877 5.510 o
-5 2 26 544.177 508.129 14.112 5.003 o
-5 2 27 117.196 102.873 10.348 26.753 o
-5 2 28 427.773 448.532 17.266 6.008 o
-5 2 29 163.081 169.814 9.770 19.614 o
-5 2 30 26.703 27.770 4.102 132.028 o
-5 2 31 115.450 129.783 9.058 27.009 o
-5 2 32 57.925 61.766 4.437 65.142 o
-5 2 33 423.297 430.530 14.354 6.506 o
-5 2 34 116.091 105.311 7.704 30.549 o
-5 2 35 0.049 -0.154 2.843 1255.440 o
-5 2 36 199.011 174.251 6.866 18.579 o
-5 3 1 658.777 603.301 26.798 3.293 o
-5 3 2 8404.020 8778.280 227.616 0.041 o
-5 3 3 56.244 47.613 9.180 49.356 o
-5 3 4 1141.330 1303.250 52.447 1.160 o
-5 3 5 2626.960 1819.330 50.545 0.483 o
-5 3 6 543.413 531.891 20.480 4.447 o
-5 3 7 1170.790 1171.360 36.323 1.422 o
-5 3 8 2408.820 2421.200 63.987 0.436 o
-5 3 9 0.513 7.754 5.263 300.302 o
-5 3 10 2986.350 2529.780 67.377 0.339 o
-5 3 11 563.778 507.382 21.264 4.337 o
-5 3 12 1275.570 1320.530 30.382 1.316 o
-5 3 13 3814.750 3549.890 97.363 0.199 o
-5 3 14 150.313 119.131 8.789 23.832 o
-5 3 15 266.491 247.048 11.318 11.923 o
-5 3 16 165.118 126.700 7.981 22.659 o
-5 3 17 11.794 22.931 4.216 196.369 o
-5 3 18 940.136 1017.540 23.127 2.087 o
-5 3 19 600.221 534.484 10.085 4.709 o
-5 3 20 640.360 635.131 16.188 3.872 o
-5 3 21 163.538 135.215 5.052 24.442 o
-5 3 22 67.963 55.572 4.213 61.418 o
-5 3 23 195.263 193.661 8.181 17.555 o
-5 3 24 746.692 727.109 24.782 2.878 o
-5 3 25 451.340 457.479 11.723 6.302 o
-5 3 26 3.882 3.627 3.683 468.019 o
-5 3 27 92.858 72.157 6.895 40.510 o
-5 3 28 1791.970 1835.180 66.983 0.626 o
-5 3 29 43.260 40.530 5.682 79.435 o
-5 3 30 5.203 1.310 3.250 535.758 o
-5 3 31 0.960 -0.404 3.754 660.855 o
-5 3 32 17.605 14.214 4.283 186.531 o
-5 3 33 126.430 120.637 5.469 30.223 o
-5 3 34 13.872 14.956 2.409 274.498 o
-5 3 35 77.775 67.880 4.862 51.360 o
-5 4 1 254.641 267.662 12.423 11.615 o
-5 4 2 5.642 3.668 4.424 335.824 o
-5 4 3 19133.200 18869.600 829.247 0.006 o
-5 4 4 11366.300 11736.200 540.606 0.016 o
-5 4 5 696.159 668.713 25.458 3.111 o
-5 4 6 3165.960 2484.130 67.483 0.321 o
-5 4 7 3413.810 3520.830 90.352 0.230 o
-5 4 8 7324.770 7888.170 213.539 0.051 o
-5 4 9 50.566 46.160 7.366 61.284 o
-5 4 10 7928.720 8291.420 196.539 0.048 o
-5 4 11 3560.030 2953.790 133.021 0.195 o
-5 4 12 1091.640 1191.510 39.404 1.446 o
-5 4 13 131.292 87.515 9.770 26.750 o
-5 4 14 6069.700 5100.670 216.259 0.073 o
-5 4 15 734.530 639.364 21.305 3.215 o
-5 4 16 94.609 112.989 9.709 30.258 o
-5 4 17 25.959 35.111 6.719 92.755 o
-5 4 18 0.956 3.774 3.671 581.158 o
-5 4 19 4151.810 3917.570 161.176 0.136 o
-5 4 20 638.354 671.832 14.987 3.843 o
-5 4 21 1581.720 1536.690 36.218 0.958 o
-5 4 22 78.072 82.972 8.229 39.873 o
-5 4 23 265.418 258.101 8.267 12.652 o
-5 4 24 278.264 242.537 9.463 12.158 o
-5 4 25 2456.630 2446.570 61.627 0.431 o
-5 4 26 2911.520 2811.720 56.632 0.346 o
-5 4 27 235.035 228.887 11.762 13.164 o
-5 4 28 268.689 269.205 9.429 12.042 o
-5 4 29 52.122 52.594 9.983 46.498 o
-5 4 30 535.326 569.128 33.094 3.399 o
-5 4 31 42.199 36.704 4.412 91.937 o
-5 4 32 30.017 35.892 3.935 116.846 o
-5 4 33 544.513 517.039 12.556 5.068 o
-5 4 34 128.755 112.889 6.155 29.775 o
-5 4 35 5.538 3.912 1.414 791.121 o
-5 5 1 2346.100 2351.900 44.826 0.499 o
-5 5 2 3824.420 4452.060 88.966 0.182 o
-5 5 3 1999.900 2223.100 123.659 0.338 o
-5 5 4 19489.000 19667.600 630.381 0.007 o
-5 5 5 1628.080 1664.890 50.990 0.805 o
-5 5 6 362.609 472.302 21.891 5.898 o
-5 5 7 111.379 38.557 7.234 39.302 o
-5 5 8 1142.900 1127.230 38.884 1.435 o
-5 5 9 31515.100 32522.800 729.604 0.003 o
-5 5 10 565.643 659.809 27.628 3.494 o
-5 5 11 7.562 20.824 7.389 126.307 o
-5 5 12 40298.300 40118.900 961.008 0.002 o
-5 5 13 247.876 254.668 26.406 7.343 o
-5 5 14 2691.280 2721.680 122.049 0.266 o
-5 5 15 1151.590 1191.840 63.625 1.036 o
-5 5 16 1689.240 1870.420 188.389 0.219 o
-5 5 17 9623.930 10160.400 750.235 0.013 o
-5 5 18 583.059 595.288 27.548 3.561 o
-5 5 19 23.507 14.784 6.159 122.111 o
-5 5 20 223.941 280.475 31.956 6.046 o
-5 5 21 99.352 90.243 4.887 39.959 o
-5 5 22 448.759 420.152 10.573 6.660 o
-5 5 23 1335.800 1308.800 54.620 1.009 o
-5 5 24 348.396 339.900 17.013 7.684 o
-5 5 25 702.584 743.328 26.326 2.926 o
-5 5 26 491.388 502.035 17.013 5.216 o
-5 5 27 386.663 410.902 12.422 7.351 o
-5 5 28 73.393 75.489 5.159 50.851 o
-5 5 29 189.198 182.776 9.637 17.491 o
-5 5 30 21.773 24.105 4.439 146.126 o
-5 5 31 1532.900 1527.660 54.573 0.852 o
-5 5 32 1018.290 997.933 25.465 1.918 o
-5 5 33 33.519 21.606 3.597 128.913 o
-5 5 34 94.433 85.964 4.318 42.912 o
-5 6 1 237.663 261.524 9.896 13.134 o
-5 6 2 727.431 804.579 24.920 2.813 o
-5 6 3 2555.700 2824.850 112.395 0.289 o
-5 6 4 663.651 851.871 33.741 2.558 o
-5 6 5 21014.500 23097.700 525.179 0.007 o
-5 6 6 125.138 153.298 13.694 19.518 o
-5 6 7 1066.640 1041.310 38.558 1.572 o
-5 6 8 1101.670 1091.520 40.062 1.478 o
-5 6 9 3892.630 3930.200 157.954 0.145 o
-5 6 10 12026.200 11387.400 416.199 0.019 o
-5 6 11 518.561 550.662 29.891 3.754 o
-5 6 12 66.668 70.089 10.211 38.907 o
-5 6 13 1263.400 1301.970 82.898 0.752 o
-5 6 14 1252.600 1343.150 53.384 1.062 o
-5 6 15 2221.040 2142.620 49.547 0.541 o
-5 6 16 221.130 175.681 13.948 13.718 o
-5 6 17 277.793 293.149 10.924 11.008 o
-5 6 18 4250.870 4260.830 109.955 0.157 o
-5 6 19 153.332 174.725 15.042 16.038 o
-5 6 20 321.330 340.856 17.525 7.984 o
-5 6 21 227.263 201.473 31.378 6.492 o
-5 6 22 863.964 883.469 23.090 2.398 o
-5 6 23 1706.880 1741.690 91.159 0.532 o
-5 6 24 343.382 414.728 16.327 7.345 o
-5 6 25 419.219 481.837 17.769 5.867 o
-5 6 26 248.726 262.102 11.769 12.105 o
-5 6 27 46.720 56.627 4.828 74.003 o
-5 6 28 310.670 337.103 22.964 6.959 o
-5 6 29 98.135 99.585 6.576 36.345 o
-5 6 30 620.082 629.831 18.598 3.867 o
-5 6 31 666.403 615.960 31.195 2.999 o
-5 6 32 445.663 398.116 15.953 6.244 o
-5 6 33 378.258 350.104 15.180 7.503 o
-5 7 1 562.367 808.374 27.773 3.216 o
-5 7 2 7001.960 7511.920 210.364 0.055 o
-5 7 3 1358.840 1231.800 64.274 0.913 o
-5 7 4 659.139 769.448 47.325 2.076 o
-5 7 5 129.094 119.339 18.875 15.307 o
-5 7 6 7141.460 6922.150 211.006 0.056 o
-5 7 7 907.572 872.152 36.656 1.952 o
-5 7 8 12.561 25.044 19.834 23.780 o
-5 7 9 53.209 53.042 10.023 45.888 o
-5 7 10 365.551 377.926 22.691 6.197 o
-5 7 11 1.012 9.296 3.808 449.959 o
-5 7 12 411.118 429.046 10.884 7.062 o
-5 7 13 114.449 114.605 6.108 32.138 o
-5 7 14 2382.910 2551.670 53.731 0.452 o
-5 7 15 352.040 367.136 12.622 8.211 o
-5 7 16 3749.430 3921.380 99.588 0.192 o
-5 7 17 387.226 401.545 18.482 6.526 o
-5 7 18 62.306 57.964 5.566 59.336 o
-5 7 19 5822.180 5860.350 115.901 0.094 o
-5 7 20 49.268 57.789 5.590 67.645 o
-5 7 21 465.498 470.367 15.824 5.694 o
-5 7 22 1.388 4.533 3.920 494.904 o
-5 7 23 0.428 -1.779 5.050 391.793 o
-5 7 24 1.478 -1.581 5.126 360.112 o
-5 7 25 243.564 238.991 11.789 12.662 o
-5 7 26 3.460 12.837 3.645 369.140 o
-5 7 27 495.608 493.546 17.178 5.201 o
-5 7 28 1.520 1.662 4.212 483.828 o
-5 7 29 488.927 471.985 15.284 5.523 o
-5 7 30 14.186 12.428 3.369 247.173 o
-5 7 31 111.640 79.147 4.203 39.085 o
-5 7 32 19.940 9.128 2.821 231.675 o
-5 8 1 99.152 37.732 15.663 23.712 o
-5 8 2 1058.380 1169.460 83.315 0.836 o
-5 8 3 97.450 83.803 18.160 18.510 o
-5 8 4 7068.810 6220.670 231.139 0.057 o
-5 8 5 2808.950 2446.630 109.752 0.289 o
-5 8 6 1107.590 1044.800 61.849 1.130 o
-5 8 7 9322.540 8057.270 288.277 0.035 o
-5 8 8 233.938 220.382 10.779 13.764 o
-5 8 9 506.913 588.316 15.578 4.878 o
-5 8 10 524.569 559.289 11.392 5.129 o
-5 8 11 338.680 394.814 9.314 8.709 o
-5 8 12 7094.820 7086.260 97.197 0.070 o
-5 8 13 655.348 704.934 16.143 3.629 o
-5 8 14 229.314 257.844 8.104 14.132 o
-5 8 15 5678.440 5930.990 117.900 0.096 o
-5 8 16 61.828 71.534 6.775 51.733 o
-5 8 17 325.932 328.107 13.469 8.886 o
-5 8 18 3116.900 3171.130 85.202 0.270 o
-5 8 19 254.709 222.564 12.603 12.262 o
-5 8 20 1506.780 1507.960 30.666 1.051 o
-5 8 21 36.107 38.805 3.803 104.051 o
-5 8 22 1827.340 1740.000 34.718 0.789 o
-5 8 23 8.412 11.401 3.837 288.925 o
-5 8 24 757.622 770.335 41.126 2.150 o
-5 8 25 591.354 583.439 20.854 4.000 o
-5 8 26 39.265 39.189 5.499 85.710 o
-5 8 27 45.107 53.793 5.846 70.933 o
-5 8 28 1.257 0.643 3.751 625.630 o
-5 8 29 3.510 5.002 3.144 548.935 o
-5 8 30 290.675 273.746 8.901 11.408 o
-5 9 1 2025.370 1933.270 102.335 0.418 o
-5 9 2 1783.620 1973.400 44.562 0.716 o
-5 9 3 1586.410 1687.160 42.097 0.877 o
-5 9 4 1751.230 1837.270 123.799 0.381 o
-5 9 5 9198.580 9271.310 206.047 0.038 o
-5 9 6 16.213 20.960 3.902 186.974 o
-5 9 7 1857.860 1937.610 34.509 0.735 o
-5 9 8 8087.710 8081.520 134.166 0.053 o
-5 9 9 5674.370 5812.730 105.347 0.099 o
-5 9 10 577.639 620.434 14.891 4.334 o
-5 9 11 1588.560 1739.950 28.231 0.940 o
-5 9 12 2506.280 2725.790 46.083 0.428 o
-5 9 13 5813.150 5998.010 98.211 0.096 o
-5 9 14 223.135 248.277 11.293 13.435 o
-5 9 15 4129.800 4100.630 85.269 0.178 o
-5 9 16 75.577 82.516 6.888 44.158 o
-5 9 17 160.308 187.464 9.970 19.030 o
-5 9 18 3255.410 3235.990 77.611 0.264 o
-5 9 19 1.065 1.353 3.504 691.173 o
-5 9 20 1869.980 1904.010 37.253 0.727 o
-5 9 21 1234.090 1263.670 36.725 1.310 o
-5 9 22 2.863 11.117 4.044 357.171 o
-5 9 23 125.656 137.339 6.930 27.596 o
-5 9 24 695.169 724.188 22.221 3.164 o
-5 9 25 2125.180 2159.660 69.942 0.496 o
-5 9 26 889.325 819.024 23.834 2.394 o
-5 9 27 262.762 287.471 11.078 11.485 o
-5 9 28 943.427 895.665 23.999 2.185 o
-5 9 29 18.411 21.038 2.934 198.707 o
-5 9 30 129.093 74.750 4.961 34.557 o
-5 10 1 2.242 23.187 2.489 386.429 o
-5 10 2 783.735 822.350 17.671 2.852 o
-5 10 3 525.800 497.989 13.106 5.263 o
-5 10 4 34.868 44.127 4.268 98.078 o
-5 10 5 2428.390 2565.890 49.894 0.450 o
-5 10 6 1.447 13.519 3.356 440.257 o
-5 10 7 22.799 29.520 3.072 156.305 o
-5 10 8 1.351 7.414 2.606 722.902 o
-5 10 9 356.738 379.500 10.603 8.334 o
-5 10 10 297.252 307.028 11.036 10.281 o
-5 10 11 3586.940 3726.650 54.669 0.238 o
-5 10 12 538.596 593.837 16.955 4.541 o
-5 10 13 522.443 509.413 17.258 4.926 o
-5 10 14 1381.220 1440.530 50.208 0.990 o
-5 10 15 11.155 18.808 5.734 162.007 o
-5 10 16 674.386 721.148 21.531 3.278 o
-5 10 17 114.425 108.724 7.750 30.477 o
-5 10 18 48.132 58.761 6.538 63.277 o
-5 10 19 5479.560 5359.880 102.081 0.109 o
-5 10 20 70.751 82.473 5.692 49.088 o
-5 10 21 128.925 144.345 7.302 26.318 o
-5 10 22 183.740 193.175 10.993 16.707 o
-5 10 23 24.259 24.997 4.072 143.362 o
-5 10 24 992.736 1010.010 30.814 1.846 o
-5 10 25 959.952 956.697 26.630 2.035 o
-5 10 26 66.099 67.178 5.427 55.358 o
-5 10 27 270.915 253.075 9.407 12.243 o
-5 10 28 15.080 6.844 2.593 301.456 o
-5 11 1 54.110 51.252 3.226 76.944 o
-5 11 2 971.476 881.274 15.177 2.309 o
-5 11 3 574.924 594.093 11.659 4.605 o
-5 11 4 3080.550 3214.930 40.912 0.318 o
-5 11 5 1355.290 1406.110 22.019 1.272 o
-5 11 6 604.556 674.815 21.408 3.677 o
-5 11 7 717.375 735.028 30.134 2.727 o
-5 11 8 6.954 9.221 2.947 399.561 o
-5 11 9 1774.950 1886.590 36.827 0.771 o
-5 11 10 746.064 755.439 15.056 3.177 o
-5 11 11 1173.290 1187.920 24.922 1.561 o
-5 11 12 318.775 306.598 10.311 9.916 o
-5 11 13 229.000 263.588 22.694 8.680 o
-5 11 14 532.479 595.209 32.627 3.397 o
-5 11 15 986.847 1011.850 51.547 1.416 o
-5 11 16 45.633 68.173 8.876 50.831 o
-5 11 17 1654.530 1710.720 63.270 0.708 o
-5 11 18 39.456 44.832 8.166 63.723 o
-5 11 19 370.802 405.833 15.399 7.181 o
-5 11 20 243.052 296.293 10.386 12.171 o
-5 11 21 367.914 386.674 11.755 7.916 o
-5 11 22 282.996 269.948 9.114 11.652 o
-5 11 23 353.131 366.632 14.028 7.958 o
-5 11 24 32.038 28.493 3.463 125.595 o
-5 11 25 471.553 496.486 17.396 5.368 o
-5 11 26 183.936 159.526 7.247 20.053 o
-5 11 27 3.258 2.390 2.002 975.359 o
-5 12 1 95.824 101.092 4.115 40.528 o
-5 12 2 2819.660 3026.380 36.540 0.367 o
-5 12 3 10.341 22.769 2.804 256.440 o
-5 12 4 872.972 847.070 13.893 2.631 o
-5 12 5 777.627 805.088 15.756 2.954 o
-5 12 6 0.310 2.963 3.087 843.833 o
-5 12 7 57.815 54.393 4.118 69.079 o
-5 12 8 2259.030 2375.110 58.680 0.481 o
-5 12 9 992.997 1057.010 33.873 1.748 o
-5 12 10 11.657 26.465 3.477 209.356 o
-5 12 11 1424.060 1473.980 26.653 1.151 o
-5 12 12 132.903 114.929 6.051 29.070 o
-5 12 13 2.496 9.774 4.804 302.398 o
-5 12 14 396.312 419.942 22.363 5.760 o
-5 12 15 1764.760 1877.800 68.644 0.619 o
-5 12 16 1079.920 1203.450 47.369 1.323 o
-5 12 17 444.776 457.086 22.997 5.129 o
-5 12 18 526.451 536.593 25.335 4.132 o
-5 12 19 738.240 784.669 32.584 2.507 o
-5 12 20 54.235 51.129 7.537 57.016 o
-5 12 21 1523.440 1554.410 55.022 0.847 o
-5 12 22 7.849 11.175 3.605 313.046 o
-5 12 23 21.358 24.961 2.893 174.277 o
-5 12 24 189.472 190.625 7.650 18.294 o
-5 12 25 97.222 76.704 4.228 43.642 o
-5 13 1 2849.470 2935.640 69.720 0.328 o
-5 13 2 84.040 74.742 4.311 48.565 o
-5 13 3 971.217 1035.100 16.779 2.117 o
-5 13 4 2.414 11.856 2.698 525.852 o
-5 13 5 825.883 807.404 14.025 2.832 o
-5 13 6 2320.750 2488.260 46.261 0.487 o
-5 13 7 35.984 40.742 3.800 102.685 o
-5 13 8 48.979 45.680 3.941 81.650 o
-5 13 9 340.238 370.858 11.855 8.516 o
-5 13 10 30.502 38.764 4.587 106.465 o
-5 13 11 259.336 228.445 7.733 13.597 o
-5 13 12 7.321 8.379 3.099 386.890 o
-5 13 13 48.477 45.871 5.104 75.691 o
-5 13 14 1422.410 1471.010 32.334 1.112 o
-5 13 15 140.699 166.190 7.652 23.395 o
-5 13 16 182.470 207.238 7.226 18.413 o
-5 13 17 705.197 770.127 16.216 3.271 o
-5 13 18 568.196 623.668 17.314 4.241 o
-5 13 19 401.124 397.966 11.136 7.396 o
-5 13 20 0.625 12.105 9.441 103.532 o
-5 13 21 47.540 36.459 5.204 80.450 o
-5 13 22 133.996 101.689 6.380 29.588 o
-5 14 1 3420.570 3735.300 58.428 0.248 o
-5 14 2 122.919 120.574 6.103 30.154 o
-5 14 3 1648.870 1712.090 31.386 0.898 o
-5 14 4 15.458 13.022 3.230 238.882 o
-5 14 5 1092.190 1115.300 19.711 1.789 o
-5 14 6 3117.200 3209.200 54.755 0.302 o
-5 14 7 64.464 89.435 6.097 49.080 o
-5 14 8 4.224 8.040 3.358 438.976 o
-5 14 9 952.981 895.500 26.038 2.119 o
-5 14 10 13.809 12.617 3.497 244.451 o
-5 14 11 76.594 73.143 4.987 50.426 o
-5 14 12 608.219 660.746 16.923 3.937 o
-5 14 13 1409.030 1537.420 28.209 1.128 o
-5 14 14 261.964 274.359 7.989 12.555 o
-5 14 15 672.054 716.671 19.133 3.403 o
-5 14 16 1154.800 1234.920 22.708 1.580 o
-5 14 17 2295.110 2490.390 48.456 0.487 o
-5 14 18 27.251 31.776 3.239 136.242 o
-5 14 19 97.297 92.029 4.238 41.242 o
-5 14 20 329.114 305.226 7.685 10.145 o
-5 14 21 46.545 39.227 2.649 94.959 o
-5 15 1 0.919 4.181 2.887 805.244 o
-5 15 2 337.092 373.217 12.634 8.418 o
-5 15 3 3132.910 3199.640 64.058 0.291 o
-5 15 4 2386.300 2578.310 69.043 0.415 o
-5 15 5 535.634 598.250 15.525 4.642 o
-5 15 6 165.462 174.228 8.255 20.321 o
-5 15 7 1828.110 1976.690 55.629 0.650 o
-5 15 8 100.105 124.982 6.109 33.903 o
-5 15 9 565.848 607.516 21.294 4.042 o
-5 15 10 3559.970 3895.300 87.863 0.211 o
-5 15 11 243.904 264.071 10.443 12.677 o
-5 15 12 1367.570 1430.020 56.473 0.940 o
-5 15 13 2187.020 2358.840 58.552 0.498 o
-5 15 14 191.780 204.616 6.895 18.025 o
-5 15 15 131.291 120.061 5.424 29.524 o
-5 15 16 33.682 22.530 2.751 136.473 o
-5 15 17 191.145 183.889 6.854 18.799 o
-5 15 18 2016.990 1618.690 98.845 0.455 o
-5 16 1 214.828 239.246 23.906 8.691 o
-5 16 2 54.121 54.128 4.124 72.091 o
-5 16 3 15.967 23.472 3.335 196.198 o
-5 16 4 1.569 6.379 2.938 657.560 o
-5 16 5 120.352 108.942 4.996 32.832 o
-5 16 6 1289.650 1274.820 32.964 1.297 o
-5 16 7 81.156 83.109 5.805 44.874 o
-5 16 8 1205.260 1267.910 33.036 1.381 o
-5 16 9 26.679 24.945 3.966 137.902 o
-5 16 10 285.998 297.606 12.834 10.235 o
-5 16 11 133.744 137.662 6.416 26.968 o
-5 16 12 29.198 34.514 4.984 108.194 o
-5 16 13 271.983 283.015 12.772 10.797 o
-5 16 14 73.433 70.551 5.336 51.424 o
-5 16 15 19.293 9.455 2.464 246.245 o
-5 17 1 1667.750 1764.110 42.289 0.818 o
-5 17 2 144.390 160.723 6.634 24.094 o
-5 17 3 266.643 256.292 36.933 4.862 o
-5 17 4 1780.500 1837.830 61.848 0.656 o
-5 17 5 73.895 86.058 6.944 43.982 o
-5 17 6 489.969 559.654 21.603 4.602 o
-5 17 7 55.903 56.320 3.584 71.824 o
-5 17 8 36.501 30.005 3.328 115.383 o
-5 17 9 1856.370 1549.980 87.399 0.541 o
-5 17 10 389.330 354.587 14.235 7.461 o
-5 18 2 1648.070 1286.550 42.807 0.945 o
-4 -14 1 510.100 478.920 14.009 5.413 o
-4 -14 2 65.397 56.090 4.591 61.601 o
-4 -14 3 189.608 187.740 7.903 18.253 o
-4 -14 4 15.414 16.701 2.715 240.961 o
-4 -14 5 695.052 651.523 61.235 1.610 o
-4 -14 6 535.139 482.836 34.140 3.477 o
-4 -14 7 244.952 254.696 12.026 12.262 o
-4 -14 8 250.701 227.437 6.689 14.272 o
-4 -14 9 308.585 289.546 13.497 9.636 o
-4 -14 10 34.968 37.804 2.765 115.024 o
-4 -14 11 6.490 3.386 1.924 653.925 o
-4 -14 12 308.968 308.573 10.428 10.105 o
-4 -14 13 10.813 7.940 2.304 379.007 o
-4 -14 14 114.866 134.579 5.857 30.594 o
-4 -14 15 274.589 247.361 8.244 12.522 o
-4 -14 16 7.418 3.785 3.253 423.130 o
-4 -14 17 97.190 63.618 4.781 44.874 o
-4 -14 18 23.335 9.638 2.362 216.365 o
-4 -13 1 42.997 41.261 3.042 96.567 o
-4 -13 2 356.307 333.704 7.630 9.195 o
-4 -13 3 224.400 237.410 6.161 15.435 o
-4 -13 4 199.859 220.284 8.269 16.451 o
-4 -13 5 1050.930 1067.760 20.467 1.885 o
-4 -13 6 5.032 13.403 2.670 420.995 o
-4 -13 7 792.742 806.415 20.437 2.768 o
-4 -13 8 394.139 428.002 14.172 6.902 o
-4 -13 9 99.511 101.202 6.531 35.927 o
-4 -13 10 33.018 26.788 3.394 126.017 o
-4 -13 11 24.660 13.088 3.094 183.037 o
-4 -13 12 1830.790 1838.760 32.597 0.774 o
-4 -13 13 255.825 245.683 7.217 13.528 o
-4 -13 14 4.024 3.842 3.155 549.685 o
-4 -13 15 1457.150 1486.950 37.367 1.042 o
-4 -13 16 30.373 25.923 6.096 100.254 o
-4 -13 17 238.671 209.605 11.103 13.661 o
-4 -13 18 1050.250 1049.050 29.401 1.756 o
-4 -13 19 0.097 1.026 2.902 1099.810 o
-4 -13 20 1703.750 1387.730 47.331 0.858 o
-4 -13 22 191.045 148.443 7.371 19.859 o
-4 -12 1 143.609 132.658 4.434 27.513 o
-4 -12 2 176.993 176.041 4.856 21.142 o
-4 -12 3 235.425 253.831 5.965 14.553 o
-4 -12 4 11.012 6.691 2.452 377.974 o
-4 -12 5 1508.240 1540.990 24.527 1.076 o
-4 -12 6 1453.630 1403.010 22.093 1.186 o
-4 -12 7 195.075 186.165 5.450 19.036 o
-4 -12 8 1442.160 1380.010 20.129 1.217 o
-4 -12 9 47.817 56.070 3.745 78.520 o
-4 -12 10 103.561 104.076 8.794 31.077 o
-4 -12 11 2005.520 1877.080 38.901 0.676 o
-4 -12 12 26.545 32.165 4.064 127.368 o
-4 -12 13 211.975 216.923 6.175 16.666 o
-4 -12 14 462.184 460.941 9.255 6.361 o
-4 -12 15 957.598 954.616 20.213 2.171 o
-4 -12 16 35.764 40.205 3.387 106.680 o
-4 -12 17 229.841 207.763 6.894 15.693 o
-4 -12 18 95.635 91.640 6.496 38.028 o
-4 -12 19 515.437 518.213 11.635 5.366 o
-4 -12 20 91.090 83.968 5.784 41.649 o
-4 -12 21 711.101 646.893 13.012 3.621 o
-4 -12 22 308.640 290.435 10.059 10.418 o
-4 -12 23 15.667 15.185 2.595 249.133 o
-4 -12 24 10.264 12.248 2.144 356.924 o
-4 -12 25 99.681 88.270 4.148 41.218 o
-4 -11 1 1118.380 1062.920 14.827 1.843 o
-4 -11 2 4.892 1.670 2.437 716.521 o
-4 -11 3 8.060 12.790 2.634 363.600 o
-4 -11 4 2752.600 2807.490 35.166 0.395 o
-4 -11 5 1244.170 1225.740 20.244 1.499 o
-4 -11 6 510.443 473.631 11.850 5.599 o
-4 -11 7 96.701 113.453 4.076 38.659 o
-4 -11 8 183.968 168.002 5.017 20.816 o
-4 -11 9 1031.140 991.053 13.933 2.078 o
-4 -11 10 231.505 231.186 5.473 15.417 o
-4 -11 11 1302.880 1267.800 24.207 1.374 o
-4 -11 12 28.076 44.922 2.849 121.505 o
-4 -11 13 31.108 24.996 2.882 138.953 o
-4 -11 14 103.524 110.192 4.009 37.423 o
-4 -11 15 299.117 335.780 6.860 10.656 o
-4 -11 16 397.524 401.385 7.117 7.841 o
-4 -11 17 246.753 268.786 6.306 13.649 o
-4 -11 18 861.802 874.313 29.610 2.233 o
-4 -11 19 724.248 721.103 15.454 3.319 o
-4 -11 20 297.431 264.522 7.035 11.729 o
-4 -11 21 248.856 225.448 5.689 14.655 o
-4 -11 22 207.126 197.885 5.494 17.781 o
-4 -11 23 1105.510 1108.640 18.380 1.789 o
-4 -11 24 36.408 35.637 2.646 115.138 o
-4 -11 25 66.235 66.729 3.873 60.103 o
-4 -11 26 82.619 84.105 6.088 43.587 o
-4 -11 27 25.402 24.215 3.384 151.801 o
-4 -11 28 424.498 385.195 14.807 6.706 o
-4 -10 1 860.665 812.494 12.339 2.748 o
-4 -10 2 4982.010 4787.820 53.394 0.142 o
-4 -10 3 0.205 4.617 2.247 1175.970 o
-4 -10 4 25.987 41.436 3.035 128.964 o
-4 -10 5 3262.360 3202.680 38.230 0.301 o
-4 -10 6 1821.540 1690.570 25.009 0.841 o
-4 -10 7 6888.920 6634.780 68.690 0.078 o
-4 -10 8 700.921 696.158 9.266 3.660 o
-4 -10 9 1247.250 1266.020 13.844 1.519 o
-4 -10 10 2518.580 2542.010 25.646 0.472 o
-4 -10 11 594.308 526.774 7.643 4.879 o
-4 -10 12 3544.000 3330.890 37.052 0.268 o
-4 -10 13 80.887 64.039 3.590 53.713 o
-4 -10 14 979.977 913.340 13.010 2.283 o
-4 -10 15 252.198 315.746 5.851 12.619 o
-4 -10 16 225.755 227.714 5.046 15.918 o
-4 -10 17 11.123 10.677 2.201 352.514 o
-4 -10 18 816.283 814.631 11.088 2.911 o
-4 -10 19 1199.450 1280.850 17.504 1.543 o
-4 -10 20 444.982 437.945 7.420 6.847 o
-4 -10 21 969.890 998.784 13.256 2.206 o
-4 -10 22 443.440 452.156 7.804 6.748 o
-4 -10 23 29.894 31.860 2.628 135.211 o
-4 -10 24 289.277 306.706 6.551 11.411 o
-4 -10 25 84.903 89.686 3.799 46.322 o
-4 -10 26 43.693 44.880 4.712 83.265 o
-4 -10 27 355.928 375.709 10.928 8.334 o
-4 -10 28 40.693 36.612 3.178 102.863 o
-4 -10 29 2.930 2.825 2.344 866.049 o
-4 -10 30 143.462 140.978 7.442 24.640 o
-4 -9 1 3047.570 3052.830 40.172 0.332 o
-4 -9 2 110.211 94.293 4.292 37.410 o
-4 -9 3 39.842 61.190 3.351 86.127 o
-4 -9 4 516.849 460.296 8.506 5.818 o
-4 -9 5 1191.130 1081.540 13.765 1.723 o
-4 -9 6 609.347 612.932 8.387 4.440 o
-4 -9 7 125.460 125.196 3.532 31.623 o
-4 -9 8 2964.170 2810.430 26.957 0.370 o
-4 -9 9 38.088 38.442 2.354 110.911 o
-4 -9 10 261.176 290.275 4.777 12.941 o
-4 -9 11 1712.370 1601.090 16.084 0.954 o
-4 -9 12 597.901 604.609 7.718 4.567 o
-4 -9 13 3404.620 3281.760 33.237 0.285 o
-4 -9 14 427.149 462.455 8.002 6.880 o
-4 -9 15 1664.150 1719.330 21.044 0.932 o
-4 -9 16 584.758 603.578 9.850 4.585 o
-4 -9 17 0.482 5.776 2.115 1091.640 o
-4 -9 18 397.834 405.749 6.429 7.855 o
-4 -9 19 200.060 223.164 4.807 17.636 o
-4 -9 20 995.622 954.886 12.684 2.205 o
-4 -9 21 600.574 596.911 8.930 4.534 o
-4 -9 22 384.951 418.494 7.239 7.896 o
-4 -9 23 1546.110 1598.290 20.828 1.047 o
-4 -9 24 46.854 48.779 3.298 85.449 o
-4 -9 25 98.789 100.320 4.373 39.472 o
-4 -9 26 823.517 830.994 15.557 2.768 o
-4 -9 27 885.792 948.537 16.123 2.419 o
-4 -9 28 1786.920 1989.320 45.763 0.707 o
-4 -9 29 193.286 208.826 8.645 16.986 o
-4 -9 30 554.552 542.408 15.551 4.702 o
-4 -9 31 642.505 585.780 17.711 3.912 o
-4 -8 1 4948.560 5034.300 62.214 0.137 o
-4 -8 2 359.737 344.376 9.755 8.727 o
-4 -8 3 372.893 366.005 12.634 7.872 o
-4 -8 4 28.183 31.096 2.427 143.276 o
-4 -8 5 975.175 916.799 11.824 2.305 o
-4 -8 6 1438.810 1379.250 16.307 1.241 o
-4 -8 7 1822.170 1898.810 24.000 0.794 o
-4 -8 8 2421.870 2333.810 20.490 0.524 o
-4 -8 9 1713.200 1641.610 14.950 0.945 o
-4 -8 10 218.728 189.037 3.501 17.865 o
-4 -8 11 0.383 3.380 1.527 1914.610 o
-4 -8 12 1150.060 1186.900 11.781 1.720 o
-4 -8 13 97.621 82.097 3.085 44.197 o
-4 -8 14 3752.150 3654.450 38.263 0.237 o
-4 -8 15 247.253 229.141 4.510 14.900 o
-4 -8 16 177.628 180.296 3.708 21.328 o
-4 -8 17 444.936 446.227 6.170 6.871 o
-4 -8 18 78.726 94.284 3.153 48.792 o
-4 -8 19 113.028 134.170 3.630 33.052 o
-4 -8 20 121.545 103.336 3.333 34.702 o
-4 -8 21 911.048 914.837 11.285 2.475 o
-4 -8 22 700.450 732.035 9.878 3.562 o
-4 -8 23 733.320 777.101 10.198 3.311 o
-4 -8 24 508.161 563.972 8.594 5.401 o
-4 -8 25 269.583 300.738 5.946 12.252 o
-4 -8 26 93.413 101.751 3.730 41.632 o
-4 -8 27 97.245 87.729 3.394 43.030 o
-4 -8 28 414.567 484.096 9.260 6.804 o
-4 -8 29 16.424 17.814 2.680 229.256 o
-4 -8 30 0.140 0.008 2.228 1979.360 o
-4 -8 31 39.443 25.267 4.376 104.789 o
-4 -8 32 110.168 110.473 4.186 35.641 o
-4 -8 33 188.913 187.927 8.502 17.978 o
-4 -7 1 2.055 3.173 1.843 1177.010 o
-4 -7 2 5639.380 5376.530 63.547 0.112 o
-4 -7 3 532.617 445.291 7.536 5.786 o
-4 -7 4 0.860 3.556 1.896 1377.250 o
-4 -7 5 1735.670 1744.940 18.476 0.892 o
-4 -7 6 155.491 152.296 3.295 25.268 o
-4 -7 7 1971.830 1907.140 19.521 0.738 o
-4 -7 8 1.463 9.800 1.207 953.096 o
-4 -7 9 71.036 79.686 2.047 57.364 o
-4 -7 10 803.339 676.716 8.151 3.269 o
-4 -7 11 1527.000 1492.670 13.082 1.131 o
-4 -7 12 391.426 366.311 5.002 8.420 o
-4 -7 13 0.655 4.250 1.351 1743.780 o
-4 -7 14 482.055 439.122 6.210 6.443 o
-4 -7 15 1.466 5.711 1.475 1208.350 o
-4 -7 16 0.996 2.347 1.473 1922.660 o
-4 -7 17 345.666 378.911 5.868 9.135 o
-4 -7 18 39.641 38.927 2.249 108.158 o
-4 -7 19 81.319 86.568 3.047 49.462 o
-4 -7 20 29.932 38.908 2.417 127.673 o
-4 -7 21 114.088 112.895 3.405 35.226 o
-4 -7 22 627.416 634.571 8.676 4.247 o
-4 -7 23 0.723 1.266 1.973 1746.090 o
-4 -7 24 1.016 1.170 1.979 1639.740 o
-4 -7 25 211.783 212.279 5.390 17.067 o
-4 -7 26 57.244 65.177 3.850 66.488 o
-4 -7 27 80.642 78.279 3.929 49.973 o
-4 -7 28 111.713 129.068 4.054 33.468 o
-4 -7 29 112.392 101.268 4.148 36.223 o
-4 -7 30 255.104 279.009 13.492 11.089 o
-4 -7 31 27.822 26.597 2.623 149.643 o
-4 -7 32 788.280 911.581 19.019 2.666 o
-4 -7 33 7.615 8.387 2.580 427.361 o
-4 -6 1 1.752 3.346 2.608 868.328 o
-4 -6 2 85.164 86.455 5.615 43.425 o
-4 -6 3 5625.560 5628.420 111.474 0.101 o
-4 -6 4 950.832 946.639 40.942 1.725 o
-4 -6 5 137.298 156.148 12.627 19.602 o
-4 -6 6 3472.740 3386.420 59.426 0.257 o
-4 -6 7 1534.120 1516.630 27.939 1.046 o
-4 -6 8 5152.890 4915.980 59.276 0.133 o
-4 -6 9 380.024 387.902 6.529 8.311 o
-4 -6 10 141.032 149.753 3.033 27.443 o
-4 -6 11 4717.500 4420.550 34.794 0.162 o
-4 -6 12 693.535 689.924 6.817 3.765 o
-4 -6 13 7.644 10.450 1.375 493.213 o
-4 -6 14 15.189 13.055 1.347 302.384 o
-4 -6 15 730.020 754.817 7.652 3.423 o
-4 -6 16 144.079 148.718 2.981 27.113 o
-4 -6 17 950.904 1003.880 10.480 2.276 o
-4 -6 18 366.494 375.956 5.734 8.750 o
-4 -6 19 46.274 46.343 2.421 91.483 o
-4 -6 20 1718.500 1694.530 17.701 0.918 o
-4 -6 21 12.221 11.980 1.970 333.643 o
-4 -6 22 120.873 105.344 3.279 34.672 o
-4 -6 23 154.197 145.920 4.455 25.252 o
-4 -6 24 233.433 194.945 4.819 16.460 o
-4 -6 25 2.155 3.114 2.196 1000.840 o
-4 -6 26 0.672 2.005 2.268 1350.610 o
-4 -6 27 124.816 139.042 4.411 29.897 o
-4 -6 28 190.650 203.500 6.041 18.500 o
-4 -6 29 70.087 68.535 4.202 56.578 o
-4 -6 30 0.502 -1.745 2.765 1222.630 o
-4 -6 31 0.823 -0.041 2.775 1150.820 o
-4 -6 32 6.795 12.367 2.677 390.846 o
-4 -6 33 34.907 41.491 2.536 113.016 o
-4 -6 34 98.749 90.088 3.995 41.433 o
-4 -5 1 3190.540 3263.500 85.746 0.259 o
-4 -5 2 5.107 11.168 4.143 312.042 o
-4 -5 3 287.533 337.878 13.433 9.583 o
-4 -5 4 7375.590 7217.880 147.244 0.061 o
-4 -5 5 1446.000 1545.940 73.155 0.737 o
-4 -5 6 2648.340 2655.590 109.472 0.294 o
-4 -5 7 38.578 51.298 9.598 53.929 o
-4 -5 8 1.965 8.299 6.614 194.372 o
-4 -5 9 9493.430 8122.580 396.566 0.027 o
-4 -5 10 20.707 48.712 13.576 40.633 o
-4 -5 11 18.756 16.405 10.571 67.494 o
-4 -5 12 664.495 653.448 44.788 2.272 o
-4 -5 13 12.924 14.154 1.811 312.573 o
-4 -5 14 5442.410 5055.530 47.006 0.124 o
-4 -5 15 311.563 323.473 4.984 10.731 o
-4 -5 16 2173.970 2153.160 20.713 0.618 o
-4 -5 17 3228.500 3167.430 29.327 0.312 o
-4 -5 18 5.096 12.099 1.723 530.846 o
-4 -5 19 132.380 142.399 5.026 28.001 o
-4 -5 20 978.072 986.489 12.469 2.211 o
-4 -5 21 166.420 155.679 4.346 23.374 o
-4 -5 22 172.082 193.157 5.798 20.407 o
-4 -5 23 177.797 171.172 7.692 19.820 o
-4 -5 24 5687.360 5894.900 64.822 0.105 o
-4 -5 25 585.972 628.258 10.904 4.450 o
-4 -5 26 19.807 31.436 3.048 164.491 o
-4 -5 27 486.463 545.516 9.644 5.632 o
-4 -5 28 22.058 27.295 2.827 167.230 o
-4 -5 29 641.548 710.911 11.138 3.870 o
-4 -5 30 99.289 109.530 4.446 38.045 o
-4 -5 31 64.772 63.118 3.429 63.329 o
-4 -5 32 896.525 966.553 16.308 2.367 o
-4 -5 33 180.916 188.392 5.267 20.115 o
-4 -5 34 48.159 48.233 2.500 87.622 o
-4 -5 35 45.775 40.432 2.548 95.662 o
-4 -4 1 3258.010 3170.600 69.437 0.275 o
-4 -4 2 9892.510 9344.520 136.442 0.038 o
-4 -4 3 436.908 477.812 12.609 6.267 o
-4 -4 4 348.821 307.112 13.178 8.708 o
-4 -4 5 1701.490 1785.770 77.001 0.603 o
-4 -4 6 1580.480 1534.640 89.918 0.587 o
-4 -4 7 8327.750 7625.760 127.187 0.053 o
-4 -4 8 3300.440 3052.610 56.150 0.290 o
-4 -4 9 652.459 430.928 18.206 4.257 o
-4 -4 10 4713.810 4083.480 109.120 0.144 o
-4 -4 11 4006.380 3992.870 174.716 0.131 o
-4 -4 12 751.599 636.770 41.359 2.275 o
-4 -4 13 793.577 852.513 49.620 1.753 o
-4 -4 14 208.476 152.421 20.357 11.185 o
-4 -4 15 13996.700 12804.600 154.334 0.020 o
-4 -4 16 920.370 934.974 12.164 2.413 o
-4 -4 17 4121.730 3813.580 37.395 0.207 o
-4 -4 18 1696.800 1655.440 17.713 0.943 o
-4 -4 19 7.504 16.296 2.105 373.324 o
-4 -4 20 36.118 36.492 2.492 115.886 o
-4 -4 21 430.940 437.404 7.185 7.057 o
-4 -4 22 46.632 56.045 3.173 82.238 o
-4 -4 23 556.636 553.188 10.115 4.965 o
-4 -4 24 34.565 25.346 2.916 128.771 o
-4 -4 25 43.849 72.958 3.623 74.872 o
-4 -4 26 1308.270 1336.710 20.095 1.366 o
-4 -4 27 27.337 39.770 3.541 122.587 o
-4 -4 28 831.787 890.145 13.741 2.692 o
-4 -4 29 1006.750 1051.200 15.313 2.050 o
-4 -4 30 1476.210 1553.900 23.964 1.098 o
-4 -4 31 30.416 31.689 2.917 131.261 o
-4 -4 32 432.383 432.954 9.369 6.896 o
-4 -4 33 184.973 218.397 5.926 18.422 o
-4 -4 34 507.489 590.773 10.654 5.183 o
-4 -4 35 14.393 14.014 2.233 280.071 o
-4 -4 36 5.004 6.955 1.783 657.339 o
-4 -3 1 33.427 23.816 2.630 136.567 o
-4 -3 2 1652.160 1420.640 23.128 1.025 o
-4 -3 3 1597.110 1275.400 35.629 1.033 o
-4 -3 4 1.119 2.350 2.158 1280.520 o
-4 -3 5 847.497 801.009 72.426 1.171 o
-4 -3 6 476.501 624.412 32.599 3.555 o
-4 -3 7 820.907 894.857 20.432 2.562 o
-4 -3 8 7894.380 7026.500 128.058 0.059 o
-4 -3 9 1354.460 1248.600 36.669 1.212 o
-4 -3 10 23.851 51.354 4.771 105.183 o
-4 -3 11 279.158 231.512 9.451 12.317 o
-4 -3 12 665.505 581.307 17.420 3.821 o
-4 -3 13 1008.240 877.500 33.726 1.862 o
-4 -3 14 238.024 282.411 43.625 3.924 o
-4 -3 15 84.920 53.212 12.384 31.141 o
-4 -3 17 420.734 434.824 6.841 7.244 o
-4 -3 18 210.013 160.266 4.172 19.330 o
-4 -3 19 258.128 298.087 6.417 12.617 o
-4 -3 20 636.717 675.269 10.720 4.007 o
-4 -3 21 6402.340 6191.330 76.272 0.087 o
-4 -3 22 2680.470 2653.020 35.731 0.419 o
-4 -3 23 195.552 217.415 5.320 17.959 o
-4 -3 24 12.256 14.643 2.351 297.885 o
-4 -3 25 64.421 58.056 3.205 65.881 o
-4 -3 26 504.677 473.815 9.421 5.819 o
-4 -3 27 967.069 1010.770 15.683 2.167 o
-4 -3 28 957.368 953.547 15.787 2.249 o
-4 -3 29 16.660 19.668 2.965 213.203 o
-4 -3 30 435.928 447.455 8.661 6.813 o
-4 -3 31 655.499 685.782 11.890 3.838 o
-4 -3 32 103.492 104.302 5.874 35.712 o
-4 -3 33 466.658 530.015 10.837 5.824 o
-4 -3 34 274.739 266.038 6.151 12.647 o
-4 -3 35 350.314 376.301 9.872 8.585 o
-4 -3 36 803.613 752.489 17.311 2.912 o
-4 -2 1 92.070 115.136 6.636 35.859 o
-4 -2 2 19.409 46.622 5.730 105.725 o
-4 -2 3 315.087 328.455 10.669 9.677 o
-4 -2 4 4917.350 4322.660 143.785 0.120 o
-4 -2 5 1057.770 830.036 33.903 1.818 o
-4 -2 6 3345.290 3606.630 80.123 0.241 o
-4 -2 7 33.082 48.080 6.822 76.969 o
-4 -2 8 777.201 630.569 24.264 2.956 o
-4 -2 9 3304.670 3524.580 91.310 0.236 o
-4 -2 10 68.392 58.625 4.504 59.361 o
-4 -2 11 1506.340 1365.500 36.391 1.058 o
-4 -2 12 466.055 415.151 16.640 5.867 o
-4 -2 13 4033.420 3925.780 77.991 0.191 o
-4 -2 14 725.318 825.689 39.371 2.225 o
-4 -2 15 122.231 130.691 13.266 21.049 o
-4 -2 16 134.300 121.740 7.967 26.385 o
-4 -2 17 1265.130 1099.780 39.371 1.322 o
-4 -2 18 7.162 7.203 1.936 524.931 o
-4 -2 19 28.982 19.296 2.091 164.912 o
-4 -2 20 395.016 406.955 7.981 7.759 o
-4 -2 21 3.140 7.968 2.168 677.972 o
-4 -2 22 32.860 27.228 2.663 133.120 o
-4 -2 23 1084.470 1146.130 16.459 1.814 o
-4 -2 24 3975.650 4137.570 49.534 0.202 o
-4 -2 25 672.385 701.028 10.804 3.747 o
-4 -2 26 702.474 711.465 10.957 3.572 o
-4 -2 27 1.954 9.008 2.550 642.833 o
-4 -2 28 644.942 645.035 11.405 4.022 o
-4 -2 29 3066.970 3125.430 45.154 0.321 o
-4 -2 30 851.815 846.987 17.284 2.620 o
-4 -2 31 19.667 22.673 3.338 178.976 o
-4 -2 32 90.160 108.455 4.557 40.474 o
-4 -2 33 484.400 536.810 10.987 5.607 o
-4 -2 34 708.639 772.616 15.717 3.269 o
-4 -2 35 1091.390 1128.540 23.658 1.728 o
-4 -2 36 277.212 242.599 6.648 12.888 o
-4 -1 1 346.363 404.188 12.055 8.083 o
-4 -1 2 8863.150 8614.030 185.174 0.043 o
-4 -1 3 125.191 120.074 8.032 27.630 o
-4 -1 4 1005.250 935.024 26.965 1.966 o
-4 -1 5 9481.040 9096.880 292.028 0.032 o
-4 -1 6 5171.870 5326.640 89.421 0.120 o
-4 -1 7 5559.370 5729.650 110.595 0.101 o
-4 -1 8 4571.740 4314.800 172.708 0.116 o
-4 -1 9 0.305 8.694 5.057 316.419 o
-4 -1 10 15446.600 14636.400 435.086 0.013 o
-4 -1 11 8069.470 8162.810 269.362 0.041 o
-4 -1 12 5023.400 4980.360 170.707 0.101 o
-4 -1 13 13082.400 13054.300 421.424 0.016 o
-4 -1 14 2.772 1.280 2.401 953.772 o
-4 -1 15 4931.340 4650.930 141.178 0.117 o
-4 -1 16 744.127 730.650 17.529 3.153 o
-4 -1 17 382.111 279.914 15.053 8.004 o
-4 -1 18 2306.950 2161.670 55.317 0.503 o
-4 -1 19 881.546 926.892 13.748 2.500 o
-4 -1 20 12.308 8.991 2.063 353.485 o
-4 -1 21 1155.500 1082.320 13.417 1.780 o
-4 -1 22 5641.480 5522.800 64.942 0.110 o
-4 -1 23 7651.570 7562.150 88.855 0.062 o
-4 -1 24 138.706 127.319 4.604 28.496 o
-4 -1 25 3454.200 3306.690 43.814 0.273 o
-4 -1 26 346.287 369.838 7.796 9.005 o
-4 -1 27 45.189 51.022 3.356 85.801 o
-4 -1 28 205.436 195.237 5.444 17.997 o
-4 -1 29 363.262 357.225 8.225 8.739 o
-4 -1 30 240.315 254.187 7.497 13.920 o
-4 -1 31 400.742 347.466 7.735 8.188 o
-4 -1 32 2.306 4.985 3.215 590.767 o
-4 -1 33 63.917 71.734 6.728 50.955 o
-4 -1 34 305.844 312.276 12.012 9.791 o
-4 -1 35 1.383 1.371 2.575 1061.850 o
-4 -1 36 525.758 510.337 34.468 3.435 o
-4 0 1 2150.540 1920.960 36.488 0.628 o
-4 0 2 30277.800 28829.700 648.489 0.004 o
-4 0 3 13812.400 13175.500 242.734 0.019 o
-4 0 4 80.186 121.799 6.902 37.364 o
-4 0 5 17567.000 17412.000 550.533 0.009 o
-4 0 6 5272.750 5102.820 110.257 0.114 o
-4 0 7 424.865 506.791 27.894 4.530 o
-4 0 8 22491.100 21601.700 684.245 0.006 o
-4 0 9 259.162 220.849 17.894 10.193 o
-4 0 10 2630.830 2358.690 87.300 0.355 o
-4 0 11 19013.600 18384.600 584.390 0.008 o
-4 0 12 5456.630 5097.920 271.564 0.066 o
-4 0 13 854.819 826.582 21.816 2.525 o
-4 0 14 0.901 4.199 2.515 957.374 o
-4 0 15 1536.950 1508.900 30.220 1.033 o
-4 0 16 10499.400 8993.780 192.175 0.034 o
-4 0 17 986.490 834.907 18.438 2.272 o
-4 0 18 1862.300 1686.940 45.973 0.734 o
-4 0 19 1009.690 902.331 21.762 2.090 o
-4 0 20 3138.150 2942.310 37.566 0.330 o
-4 0 21 153.035 174.005 7.371 22.012 o
-4 0 22 35.503 33.853 2.563 119.502 o
-4 0 23 585.362 571.138 10.762 4.654 o
-4 0 24 1361.970 1390.960 21.627 1.276 o
-4 0 25 642.770 685.322 13.775 3.835 o
-4 0 26 3023.180 3036.070 52.459 0.324 o
-4 0 27 8.930 7.188 2.507 415.433 o
-4 0 28 47.778 37.398 4.120 86.559 o
-4 0 29 30.450 41.320 3.780 112.103 o
-4 0 30 11.908 5.702 3.183 321.993 o
-4 0 31 2858.820 2922.260 64.172 0.335 o
-4 0 32 412.564 397.365 12.277 7.101 o
-4 0 33 49.822 44.001 5.694 71.951 o
-4 0 34 63.837 59.246 8.607 46.698 o
-4 0 35 101.019 97.863 4.671 38.803 o
-4 0 36 280.398 223.529 11.899 11.672 o
-4 1 1 25463.800 24611.300 607.794 0.005 o
-4 1 2 278.991 263.133 12.960 10.821 o
-4 1 3 1918.620 1665.340 42.989 0.730 o
-4 1 4 900.488 821.689 27.484 2.267 o
-4 1 5 509.050 703.819 17.268 4.359 o
-4 1 6 4197.950 3844.310 92.879 0.177 o
-4 1 7 9622.840 9704.220 218.469 0.035 o
-4 1 8 652.525 658.364 20.303 3.557 o
-4 1 9 3239.060 3103.710 110.346 0.233 o
-4 1 10 156.881 156.047 14.537 16.727 o
-4 1 11 4144.030 3629.630 126.572 0.162 o
-4 1 12 4107.840 3477.460 164.584 0.141 o
-4 1 13 4753.200 4404.470 166.837 0.114 o
-4 1 14 815.739 804.439 23.118 2.622 o
-4 1 15 247.284 229.695 7.740 14.075 o
-4 1 16 3826.790 4049.240 93.504 0.189 o
-4 1 17 11388.800 10663.000 193.882 0.028 o
-4 1 18 1081.510 1086.410 29.075 1.691 o
-4 1 19 2080.980 2223.010 66.917 0.509 o
-4 1 20 637.862 638.508 13.868 3.981 o
-4 1 21 39.274 37.733 3.485 102.150 o
-4 1 22 5565.020 5286.050 70.843 0.114 o
-4 1 23 31.131 32.617 3.358 123.954 o
-4 1 24 2052.090 1914.580 28.340 0.685 o
-4 1 25 624.737 579.473 13.702 4.233 o
-4 1 26 294.108 299.101 9.441 10.823 o
-4 1 27 92.785 91.738 5.481 40.603 o
-4 1 28 278.638 258.449 8.484 12.132 o
-4 1 29 488.575 480.965 11.997 5.763 o
-4 1 30 473.456 475.531 13.861 5.780 o
-4 1 31 1142.850 1151.980 28.944 1.569 o
-4 1 32 90.393 91.784 6.941 38.469 o
-4 1 33 332.822 314.094 9.779 9.603 o
-4 1 34 687.575 741.771 21.490 3.191 o
-4 1 35 61.337 59.599 4.648 62.843 o
-4 1 36 524.899 484.793 30.205 3.845 o
-4 2 1 81.082 104.149 8.129 36.750 o
-4 2 2 2682.370 2887.950 201.458 0.158 o
-4 2 3 3355.320 3236.450 109.304 0.223 o
-4 2 4 1572.630 1553.600 105.667 0.498 o
-4 2 5 102.527 119.240 6.300 33.729 o
-4 2 6 659.966 652.968 21.163 3.493 o
-4 2 7 14130.800 15573.200 350.460 0.015 o
-4 2 8 1563.860 1816.750 80.107 0.616 o
-4 2 9 3445.540 3621.480 127.466 0.191 o
-4 2 10 5042.970 4595.730 118.466 0.124 o
-4 2 11 1156.000 1066.470 43.037 1.386 o
-4 2 12 1050.340 1153.620 24.790 1.754 o
-4 2 13 2760.070 2623.270 51.369 0.387 o
-4 2 14 3.332 15.688 3.103 393.859 o
-4 2 15 5134.440 4367.870 82.866 0.136 o
-4 2 16 191.060 165.348 7.636 19.075 o
-4 2 17 4169.020 4255.820 98.539 0.166 o
-4 2 18 242.694 220.933 13.261 12.434 o
-4 2 19 24.081 35.455 4.853 118.838 o
-4 2 20 6979.200 6724.700 96.991 0.073 o
-4 2 21 7.601 8.519 2.775 408.291 o
-4 2 22 528.251 445.616 11.196 5.609 o
-4 2 23 324.731 275.880 7.642 10.649 o
-4 2 24 14.475 19.295 3.712 207.098 o
-4 2 25 6216.820 5989.150 98.491 0.089 o
-4 2 26 1.661 7.075 3.447 525.994 o
-4 2 27 12.614 8.755 3.935 252.971 o
-4 2 28 593.873 602.166 16.417 4.206 o
-4 2 29 22.510 23.284 3.477 162.652 o
-4 2 30 1.530 2.616 3.404 651.376 o
-4 2 31 277.120 236.728 10.144 12.100 o
-4 2 32 252.362 234.195 12.530 12.175 o
-4 2 33 114.181 127.829 6.846 30.135 o
-4 2 34 104.719 100.680 11.445 26.793 o
-4 2 35 944.127 1014.450 47.169 1.550 o
-4 2 36 6.806 11.574 3.264 351.697 o
-4 3 1 2475.650 2428.300 52.329 0.449 o
-4 3 2 13832.300 14492.000 327.071 0.017 o
-4 3 3 7049.650 7404.580 171.532 0.060 o
-4 3 4 444.972 562.120 20.422 5.017 o
-4 3 5 15.348 7.828 3.950 232.828 o
-4 3 6 335.592 358.395 15.456 8.045 o
-4 3 7 587.501 739.298 43.715 2.386 o
-4 3 8 16892.700 17761.400 491.838 0.010 o
-4 3 9 558.572 519.866 29.536 3.677 o
-4 3 10 5594.610 5161.300 159.658 0.093 o
-4 3 11 170.138 94.508 6.186 25.280 o
-4 3 12 154.982 96.400 4.712 28.296 o
-4 3 13 399.095 422.762 11.574 7.195 o
-4 3 14 32.113 72.627 4.417 82.610 o
-4 3 15 1643.370 1548.220 35.059 0.926 o
-4 3 16 412.191 327.507 11.677 7.693 o
-4 3 17 23.400 14.481 3.667 173.666 o
-4 3 18 62.345 52.230 5.245 62.268 o
-4 3 19 4.726 14.266 2.458 437.239 o
-4 3 20 133.491 169.452 5.568 25.640 o
-4 3 21 548.333 618.858 14.160 4.569 o
-4 3 22 19.377 18.357 2.890 201.933 o
-4 3 23 394.702 395.015 9.622 7.690 o
-4 3 24 401.915 367.183 8.511 7.919 o
-4 3 25 330.457 300.462 7.563 10.190 o
-4 3 26 257.582 254.761 7.591 13.182 o
-4 3 27 88.352 81.802 4.592 45.137 o
-4 3 28 303.692 292.048 9.929 10.554 o
-4 3 29 35.669 21.593 3.273 127.156 o
-4 3 30 80.064 78.684 9.571 36.513 o
-4 3 31 1042.740 1044.330 40.417 1.563 o
-4 3 32 336.886 314.813 11.009 9.283 o
-4 3 33 37.877 36.375 2.999 109.147 o
-4 3 34 6.647 4.717 4.340 319.943 o
-4 3 35 61.304 58.252 7.079 53.810 o
-4 4 1 1664.570 1880.020 42.753 0.791 o
-4 4 2 4388.150 4351.590 106.142 0.152 o
-4 4 3 30230.800 30932.600 1153.840 0.003 o
-4 4 4 11165.200 10838.300 249.645 0.027 o
-4 4 5 6614.250 6441.090 164.771 0.070 o
-4 4 6 5536.860 5509.540 212.360 0.078 o
-4 4 7 2840.350 2833.030 74.374 0.327 o
-4 4 8 140.299 148.941 17.459 15.360 o
-4 4 9 8088.020 7562.000 253.665 0.044 o
-4 4 10 4356.470 4029.070 473.781 0.037 o
-4 4 11 3238.540 2768.470 288.442 0.091 o
-4 4 12 4576.350 3838.850 219.142 0.099 o
-4 4 13 3009.060 2629.410 154.219 0.204 o
-4 4 14 11.097 9.248 3.581 285.042 o
-4 4 15 397.781 408.157 29.637 4.776 o
-4 4 16 2770.450 2696.360 90.859 0.314 o
-4 4 17 15121.500 14746.500 464.643 0.013 o
-4 4 18 4034.270 3740.460 88.437 0.189 o
-4 4 19 4478.470 4391.900 103.127 0.150 o
-4 4 20 1181.710 1092.300 27.186 1.582 o
-4 4 21 1543.390 1433.410 27.458 1.072 o
-4 4 22 57.842 57.457 4.764 65.418 o
-4 4 23 163.929 167.629 7.622 21.147 o
-4 4 24 807.263 777.530 17.325 2.858 o
-4 4 25 0.464 3.459 2.772 941.608 o
-4 4 26 31.957 40.271 3.609 111.771 o
-4 4 27 3467.380 3226.690 64.020 0.260 o
-4 4 28 463.203 420.299 15.960 5.945 o
-4 4 29 531.897 537.817 25.395 4.095 o
-4 4 30 10.187 6.657 4.024 284.265 o
-4 4 31 3.359 3.741 3.497 515.645 o
-4 4 32 757.204 760.308 21.549 2.914 o
-4 4 33 2.590 3.658 2.881 694.635 o
-4 4 34 516.972 475.027 19.317 4.914 o
-4 5 1 20171.800 21291.400 502.927 0.008 o
-4 5 2 17112.100 16914.400 468.434 0.011 o
-4 5 3 805.897 821.476 42.037 1.995 o
-4 5 4 38380.000 37569.800 1183.780 0.002 o
-4 5 5 2945.480 2913.790 109.379 0.261 o
-4 5 6 857.813 831.890 42.420 1.895 o
-4 5 7 1147.200 909.352 32.517 1.663 o
-4 5 8 3476.660 3479.670 91.410 0.226 o
-4 5 9 5181.110 5314.490 132.283 0.108 o
-4 5 10 2228.710 2156.910 87.902 0.421 o
-4 5 11 149.888 86.101 4.749 29.855 o
-4 5 12 879.222 791.207 19.044 2.580 o
-4 5 13 3257.070 3108.200 61.067 0.287 o
-4 5 14 1500.520 1400.480 30.552 1.094 o
-4 5 15 11148.700 10739.200 240.349 0.027 o
-4 5 16 2027.700 1891.500 38.495 0.667 o
-4 5 17 0.613 3.531 2.926 851.561 o
-4 5 18 5364.730 5210.670 85.593 0.117 o
-4 5 19 6499.800 6302.530 102.813 0.082 o
-4 5 20 2506.190 2392.490 42.250 0.466 o
-4 5 21 125.627 130.450 5.977 29.068 o
-4 5 22 821.685 863.304 16.624 2.699 o
-4 5 23 0.819 8.202 3.152 598.440 o
-4 5 24 43.457 52.359 4.051 83.391 o
-4 5 25 218.418 232.377 7.170 15.555 o
-4 5 26 13.169 20.742 3.484 218.198 o
-4 5 27 18.939 25.980 4.239 156.456 o
-4 5 28 174.931 174.187 9.894 18.529 o
-4 5 29 70.986 73.668 6.518 48.382 o
-4 5 30 865.282 877.419 24.606 2.362 o
-4 5 31 1.541 3.015 3.175 705.168 o
-4 5 32 39.169 32.157 3.113 109.834 o
-4 5 33 948.597 815.518 61.559 1.322 o
-4 5 34 56.363 47.291 4.352 72.082 o
-4 6 1 774.418 694.080 27.072 2.752 o
-4 6 2 13536.500 13427.600 441.384 0.015 o
-4 6 3 14.499 57.919 12.463 46.433 o
-4 6 4 29.516 58.666 12.154 43.213 o
-4 6 5 32217.100 33370.000 1059.000 0.003 o
-4 6 6 1493.180 1526.360 69.713 0.751 o
-4 6 7 442.937 662.786 40.229 3.020 o
-4 6 8 495.536 552.032 35.892 3.355 o
-4 6 9 12.664 19.430 6.483 136.373 o
-4 6 10 22.526 14.279 6.747 114.331 o
-4 6 11 1510.790 1348.510 66.348 0.804 o
-4 6 12 420.773 469.736 56.411 2.226 o
-4 6 13 42.764 46.267 4.981 81.780 o
-4 6 14 468.059 485.864 34.624 3.686 o
-4 6 15 1051.970 874.684 20.155 2.062 o
-4 6 16 1393.100 1269.110 37.709 1.163 o
-4 6 17 1176.110 1105.020 27.769 1.573 o
-4 6 18 96.204 77.011 4.445 43.571 o
-4 6 19 1214.500 1174.470 20.534 1.565 o
-4 6 20 0.322 5.131 2.750 870.216 o
-4 6 21 6245.290 6086.810 118.290 0.085 o
-4 6 22 2967.030 2869.390 83.172 0.299 o
-4 6 23 309.879 316.199 13.177 9.395 o
-4 6 24 2371.830 2372.880 62.723 0.450 o
-4 6 25 17.973 18.040 4.502 169.916 o
-4 6 26 1495.640 1523.340 33.565 1.033 o
-4 6 27 1.675 5.574 5.357 290.850 o
-4 6 28 698.157 722.704 22.600 3.139 o
-4 6 29 126.677 106.706 7.286 29.292 o
-4 6 30 26.627 29.913 4.224 127.821 o
-4 6 31 183.613 174.970 16.377 13.812 o
-4 6 32 6.160 3.460 2.275 612.985 o
-4 6 33 5.715 4.039 1.771 709.384 o
-4 7 1 2163.120 2197.170 95.665 0.403 o
-4 7 2 142.472 210.655 23.197 10.617 o
-4 7 3 4556.720 4649.630 173.329 0.112 o
-4 7 4 33.730 27.877 12.451 45.161 o
-4 7 5 0.751 21.163 10.669 78.498 o
-4 7 6 44.831 84.183 15.400 27.554 o
-4 7 7 285.983 334.040 29.163 5.918 o
-4 7 8 619.317 722.214 45.536 2.257 o
-4 7 9 3349.420 3247.230 131.555 0.200 o
-4 7 10 267.592 316.695 29.750 6.024 o
-4 7 11 1538.380 1307.180 99.317 0.561 o
-4 7 12 69.293 56.034 6.063 54.373 o
-4 7 13 2610.320 2913.920 82.707 0.334 o
-4 7 14 6811.430 6810.020 196.060 0.062 o
-4 7 15 266.958 241.108 10.716 12.192 o
-4 7 16 136.574 174.034 10.987 20.501 o
-4 7 17 3628.710 3600.070 89.564 0.214 o
-4 7 18 574.460 564.770 17.570 4.364 o
-4 7 19 2143.970 2222.220 46.608 0.558 o
-4 7 20 28.877 24.611 3.617 137.028 o
-4 7 21 35.211 37.740 4.953 96.378 o
-4 7 22 1954.070 1898.590 43.582 0.673 o
-4 7 23 52.245 68.287 5.620 62.016 o
-4 7 24 12.527 15.631 4.376 208.367 o
-4 7 25 2.616 1.495 3.791 531.399 o
-4 7 26 26.546 28.177 5.740 109.211 o
-4 7 27 965.473 957.637 28.092 1.992 o
-4 7 28 170.504 156.388 8.722 20.313 o
-4 7 29 64.399 42.018 5.206 64.387 o
-4 7 30 60.242 60.219 4.435 64.112 o
-4 7 31 75.225 73.442 6.249 47.586 o
-4 7 32 1.312 1.566 2.004 1449.540 o
-4 8 1 57.153 101.989 18.416 20.120 o
-4 8 2 3576.730 3565.850 144.694 0.171 o
-4 8 3 660.771 848.208 52.898 1.814 o
-4 8 4 2954.500 2308.230 103.840 0.293 o
-4 8 5 680.830 745.267 49.636 1.972 o
-4 8 6 775.522 676.165 47.040 1.981 o
-4 8 7 1614.060 1230.970 67.514 0.778 o
-4 8 8 86.358 64.332 16.276 22.639 o
-4 8 9 16.946 19.311 4.561 170.077 o
-4 8 10 2493.340 2571.520 41.031 0.453 o
-4 8 11 2786.300 2798.240 41.646 0.383 o
-4 8 12 230.511 233.918 7.776 14.722 o
-4 8 13 5605.530 5613.930 88.014 0.106 o
-4 8 14 4706.200 4760.960 119.730 0.130 o
-4 8 15 2934.070 3090.800 72.275 0.307 o
-4 8 16 703.036 703.890 20.436 3.249 o
-4 8 17 8.416 10.655 4.506 253.008 o
-4 8 18 183.672 183.390 9.332 17.998 o
-4 8 19 452.676 452.299 15.584 5.931 o
-4 8 20 1055.090 1175.850 33.303 1.597 o
-4 8 21 457.748 469.845 12.783 6.067 o
-4 8 22 169.681 164.446 6.654 21.392 o
-4 8 23 331.270 362.596 13.037 8.546 o
-4 8 24 232.243 241.925 8.981 14.058 o
-4 8 25 593.151 572.430 19.773 4.090 o
-4 8 26 1236.240 1263.240 38.018 1.292 o
-4 8 27 112.199 97.408 8.216 31.108 o
-4 8 28 4.991 6.485 5.172 264.028 o
-4 8 29 116.114 112.466 5.648 32.579 o
-4 8 30 11.415 14.375 4.254 225.099 o
-4 8 31 84.932 71.612 13.680 27.069 o
-4 9 1 1007.290 769.895 28.458 2.079 o
-4 9 2 3824.310 3606.910 151.790 0.157 o
-4 9 3 12.757 56.047 16.812 29.790 o
-4 9 4 189.059 207.881 27.926 7.887 o
-4 9 5 23750.500 23082.600 759.634 0.005 o
-4 9 6 1040.370 1111.100 27.097 1.765 o
-4 9 7 4854.480 5077.470 86.268 0.133 o
-4 9 8 1362.540 1308.770 22.870 1.305 o
-4 9 9 4245.500 4484.660 77.022 0.168 o
-4 9 10 4240.550 4196.290 64.130 0.181 o
-4 9 11 8646.860 9003.310 172.591 0.043 o
-4 9 12 9619.810 9633.630 221.009 0.035 o
-4 9 13 5937.480 5997.150 142.808 0.086 o
-4 9 14 12.383 20.016 19.685 24.342 o
-4 9 15 1154.480 1274.450 41.520 1.314 o
-4 9 16 820.236 952.406 39.682 1.942 o
-4 9 17 61.098 62.572 8.488 47.527 o
-4 9 18 3407.060 3371.820 91.093 0.234 o
-4 9 19 2502.430 2533.730 71.850 0.394 o
-4 9 20 2805.220 2871.830 47.014 0.368 o
-4 9 21 48.655 51.124 4.706 75.353 o
-4 9 22 141.684 140.537 6.653 25.559 o
-4 9 23 28.528 35.267 3.984 120.151 o
-4 9 24 747.361 729.144 24.391 2.888 o
-4 9 25 268.178 273.800 13.281 10.870 o
-4 9 26 914.894 955.325 27.049 2.112 o
-4 9 27 363.473 421.347 24.348 5.743 o
-4 9 28 134.357 126.001 6.620 27.486 o
-4 9 29 134.556 146.363 9.027 23.823 o
-4 9 30 30.507 18.240 3.026 149.693 o
-4 10 1 4332.020 4441.980 59.074 0.172 o
-4 10 2 2127.890 2428.720 33.798 0.567 o
-4 10 3 3270.430 3081.650 45.261 0.301 o
-4 10 4 19.629 12.657 2.259 235.224 o
-4 10 5 6.911 15.893 2.768 347.306 o
-4 10 6 5543.090 5549.610 83.579 0.109 o
-4 10 7 80.998 66.609 3.980 52.253 o
-4 10 8 351.658 323.801 7.782 9.383 o
-4 10 9 572.261 626.445 12.120 4.491 o
-4 10 10 293.930 313.596 7.728 10.966 o
-4 10 11 14893.200 15189.300 218.409 0.016 o
-4 10 12 3.280 11.834 3.789 368.208 o
-4 10 13 117.804 157.248 11.996 21.746 o
-4 10 14 2422.620 2523.530 91.992 0.360 o
-4 10 15 186.158 167.971 12.379 16.399 o
-4 10 16 100.066 138.467 13.176 22.730 o
-4 10 17 1542.900 1762.320 53.797 0.802 o
-4 10 18 3272.560 3460.290 99.367 0.232 o
-4 10 19 106.626 105.644 8.186 31.405 o
-4 10 20 267.792 276.906 10.150 11.752 o
-4 10 21 284.919 289.561 10.192 11.041 o
-4 10 22 3.202 0.757 3.511 583.650 o
-4 10 23 550.305 545.958 17.630 4.574 o
-4 10 24 200.052 218.194 17.810 11.777 o
-4 10 25 85.828 85.088 6.573 41.380 o
-4 10 26 378.243 362.616 12.624 7.815 o
-4 10 27 59.033 76.364 5.163 57.506 o
-4 10 28 165.727 165.303 9.205 19.994 o
-4 11 1 123.836 139.725 4.009 30.302 o
-4 11 2 346.764 397.366 11.317 8.247 o
-4 11 3 887.836 892.762 14.082 2.523 o
-4 11 4 985.330 1071.300 19.943 2.006 o
-4 11 5 4454.100 4322.740 64.617 0.168 o
-4 11 6 2290.760 2273.590 34.058 0.544 o
-4 11 7 1275.400 1425.930 25.622 1.310 o
-4 11 8 694.694 798.558 16.847 3.235 o
-4 11 9 148.573 130.482 6.137 25.755 o
-4 11 10 1567.840 1711.470 28.251 0.960 o
-4 11 11 330.930 363.530 11.457 8.829 o
-4 11 12 46.699 63.382 7.777 56.580 o
-4 11 13 19.464 26.938 5.965 121.055 o
-4 11 14 236.562 264.743 12.301 12.275 o
-4 11 15 285.011 316.985 12.999 9.984 o
-4 11 16 76.502 88.854 7.141 42.238 o
-4 11 17 27.642 28.666 5.827 105.749 o
-4 11 18 475.424 497.899 17.878 5.282 o
-4 11 19 121.454 128.175 6.873 28.933 o
-4 11 20 461.467 454.636 15.875 5.802 o
-4 11 21 602.866 633.446 27.582 3.402 o
-4 11 22 216.588 187.848 9.043 16.077 o
-4 11 23 2165.850 2253.730 107.846 0.364 o
-4 11 24 1180.100 1167.530 82.259 0.807 o
-4 11 25 19.349 22.888 5.730 130.304 o
-4 11 26 1151.720 1234.730 43.312 1.308 o
-4 11 27 48.822 44.331 4.349 80.338 o
-4 12 1 1934.230 1978.920 29.797 0.713 o
-4 12 2 455.841 505.563 11.000 6.050 o
-4 12 3 549.797 558.228 11.588 4.922 o
-4 12 4 1807.660 1879.350 33.789 0.771 o
-4 12 5 158.107 109.653 5.787 26.140 o
-4 12 6 154.742 117.346 4.874 26.742 o
-4 12 7 43.289 34.406 3.418 98.939 o
-4 12 8 52.078 45.798 4.364 76.407 o
-4 12 9 184.798 198.943 8.643 17.813 o
-4 12 10 207.043 231.635 9.153 15.392 o
-4 12 11 1169.330 1224.030 33.287 1.438 o
-4 12 12 461.159 510.129 23.332 4.788 o
-4 12 13 169.691 204.565 10.258 17.650 o
-4 12 14 148.957 162.012 9.773 21.042 o
-4 12 15 100.216 89.068 7.598 35.235 o
-4 12 16 16.823 16.186 4.097 190.872 o
-4 12 17 91.112 79.470 7.013 39.732 o
-4 12 18 1005.520 1062.850 27.991 1.839 o
-4 12 19 203.699 240.912 7.573 15.958 o
-4 12 20 1276.080 1318.960 29.211 1.328 o
-4 12 21 34.090 45.111 7.644 71.018 o
-4 12 22 232.585 222.106 14.894 12.068 o
-4 12 23 15.214 14.966 3.079 238.117 o
-4 12 24 237.761 239.852 12.083 12.741 o
-4 13 1 320.935 347.293 8.469 9.713 o
-4 13 2 128.641 158.910 6.225 26.407 o
-4 13 3 1054.750 1160.150 26.294 1.720 o
-4 13 4 1427.430 1377.050 24.867 1.201 o
-4 13 5 929.036 921.372 18.457 2.304 o
-4 13 6 2393.960 2646.930 39.174 0.468 o
-4 13 7 29.520 31.175 3.455 128.555 o
-4 13 8 1573.750 1585.130 26.924 1.003 o
-4 13 9 1547.800 1649.120 42.022 0.907 o
-4 13 10 81.402 97.891 6.033 41.955 o
-4 13 11 2151.610 2169.850 103.750 0.382 o
-4 13 12 210.852 231.553 11.528 14.172 o
-4 13 13 3917.060 4053.520 96.295 0.183 o
-4 13 14 804.645 902.682 21.686 2.561 o
-4 13 15 94.786 92.664 5.887 39.214 o
-4 13 16 1837.090 1930.450 42.394 0.714 o
-4 13 17 108.249 107.199 5.961 34.258 o
-4 13 18 266.899 274.718 9.000 12.123 o
-4 13 19 97.039 88.889 4.288 41.711 o
-4 13 20 12.186 17.784 3.083 252.222 o
-4 13 21 1022.400 1017.290 21.243 1.967 o
-4 13 22 658.619 670.752 36.621 2.658 o
-4 13 23 10.601 7.114 1.838 423.876 o
-4 14 1 219.369 213.768 6.919 16.083 o
-4 14 2 423.369 479.129 10.018 6.658 o
-4 14 3 15.160 28.608 3.695 178.432 o
-4 14 4 3720.350 3926.360 111.386 0.184 o
-4 14 5 1600.330 1668.210 41.796 0.876 o
-4 14 6 156.626 183.526 8.241 20.673 o
-4 14 7 7513.190 7748.570 191.647 0.053 o
-4 14 8 1862.550 1881.280 43.681 0.708 o
-4 14 9 101.313 108.767 6.099 35.368 o
-4 14 10 1.281 5.112 4.013 472.002 o
-4 14 11 801.102 887.914 25.606 2.474 o
-4 14 12 664.834 674.436 20.585 3.455 o
-4 14 13 126.230 131.034 5.190 29.668 o
-4 14 14 120.761 127.962 6.116 29.890 o
-4 14 15 7.261 12.408 3.375 328.805 o
-4 14 16 288.533 276.568 8.594 11.498 o
-4 14 17 8.613 3.124 2.669 465.095 o
-4 14 18 10.862 12.033 2.536 327.649 o
-4 14 19 936.976 865.977 18.061 2.358 o
-4 14 20 3.924 1.562 1.453 1141.690 o
-4 15 1 30.460 34.080 3.716 120.130 o
-4 15 2 2225.390 2322.520 53.224 0.508 o
-4 15 3 297.384 306.667 11.870 10.089 o
-4 15 4 397.979 394.918 11.695 7.396 o
-4 15 5 1320.130 1304.260 36.644 1.218 o
-4 15 6 2565.860 2577.720 47.428 0.428 o
-4 15 7 4.197 17.468 2.894 374.539 o
-4 15 8 106.027 95.742 6.881 34.541 o
-4 15 9 614.420 646.062 19.718 3.793 o
-4 15 10 2229.880 2300.440 56.058 0.502 o
-4 15 11 39.821 42.989 3.895 94.560 o
-4 15 12 300.891 265.631 30.777 5.751 o
-4 15 13 618.736 634.996 25.988 3.434 o
-4 15 14 1084.740 1165.060 41.966 1.425 o
-4 15 15 291.024 294.497 10.108 10.822 o
-4 15 16 127.907 143.173 6.426 27.378 o
-4 15 17 99.678 71.247 5.264 41.968 o
-4 16 1 10.929 21.588 4.107 209.279 o
-4 16 2 116.529 127.833 7.010 29.561 o
-4 16 3 209.908 186.288 6.532 17.594 o
-4 16 4 31.943 34.960 3.351 119.553 o
-4 16 5 2.795 2.231 2.520 849.890 o
-4 16 6 730.343 752.062 43.880 2.109 o
-4 16 7 146.784 153.674 7.216 23.765 o
-4 16 8 128.941 132.413 5.400 28.948 o
-4 16 9 70.657 76.267 5.119 51.979 o
-4 16 10 538.617 541.528 20.524 4.444 o
-4 16 11 1985.960 1936.580 45.882 0.647 o
-4 16 12 0.145 1.527 2.283 1567.840 o
-4 16 13 27.356 26.842 2.923 147.192 o
-4 17 1 1099.220 1118.220 22.950 1.734 o
-4 17 2 565.066 547.984 19.265 4.357 o
-4 17 3 708.904 681.507 17.316 3.397 o
-4 17 4 3.047 5.056 3.537 495.963 o
-4 17 5 76.523 68.220 6.772 46.594 o
-4 17 6 0.438 2.775 2.049 1494.270 o
-4 17 7 1680.420 1370.540 49.532 0.858 o
-4 17 8 418.672 456.858 18.312 5.928 o
-4 17 9 501.716 445.288 17.160 5.352 o
-4 18 1 1320.430 1038.740 35.155 1.354 o
-3 -15 1 706.621 675.890 33.862 2.665 o
-3 -15 2 0.178 3.996 2.428 1130.100 o
-3 -15 3 68.831 75.305 6.194 49.882 o
-3 -15 4 147.296 141.328 8.737 23.051 o
-3 -15 5 10.728 8.228 2.772 347.348 o
-3 -15 6 177.643 174.824 6.913 20.132 o
-3 -15 7 729.336 661.352 22.692 3.133 o
-3 -15 8 5.342 5.936 2.478 559.997 o
-3 -15 9 555.575 458.917 26.402 4.091 o
-3 -15 10 1417.970 1302.500 31.612 1.187 o
-3 -15 11 235.085 187.734 7.729 15.648 o
-3 -15 12 57.309 46.980 5.576 65.852 o
-3 -15 13 21.334 15.593 2.031 216.256 o
-3 -15 14 245.826 199.382 9.432 14.227 o
-3 -15 15 140.221 89.441 5.484 30.509 o
-3 -14 1 1790.580 1809.870 47.683 0.730 o
-3 -14 2 38.001 36.758 2.802 109.900 o
-3 -14 3 304.648 297.070 11.597 10.093 o
-3 -14 4 683.979 729.088 15.140 3.483 o
-3 -14 5 0.373 4.593 2.005 1295.180 o
-3 -14 6 78.496 78.786 4.377 49.855 o
-3 -14 7 1525.890 1535.840 27.469 1.048 o
-3 -14 8 268.739 231.879 7.619 13.186 o
-3 -14 9 583.844 576.839 20.922 4.053 o
-3 -14 10 95.693 96.298 3.987 41.431 o
-3 -14 11 22.584 18.186 2.571 190.679 o
-3 -14 12 276.423 285.688 7.491 11.978 o
-3 -14 13 76.584 91.155 4.733 47.417 o
-3 -14 14 213.617 244.007 8.349 15.084 o
-3 -14 15 1228.570 1320.810 33.089 1.331 o
-3 -14 16 17.203 18.914 4.769 164.522 o
-3 -14 17 52.872 52.673 5.931 65.221 o
-3 -14 18 36.011 33.846 3.507 111.050 o
-3 -14 19 36.156 28.695 3.072 119.701 o
-3 -14 20 425.486 314.551 18.526 6.579 o
-3 -13 1 137.115 152.570 4.821 26.780 o
-3 -13 2 393.529 376.961 8.731 7.954 o
-3 -13 3 16.227 16.976 2.527 238.457 o
-3 -13 4 150.649 146.465 4.912 25.382 o
-3 -13 5 1712.990 1780.840 26.381 0.868 o
-3 -13 6 745.970 756.994 14.637 3.187 o
-3 -13 7 216.165 214.456 6.564 16.364 o
-3 -13 8 34.383 19.667 3.158 134.201 o
-3 -13 9 291.292 274.695 7.522 11.668 o
-3 -13 10 1983.040 1914.540 31.701 0.701 o
-3 -13 11 245.996 254.971 8.031 13.516 o
-3 -13 12 105.077 109.045 5.350 35.562 o
-3 -13 13 2772.630 2876.120 41.807 0.379 o
-3 -13 14 93.643 107.097 4.130 40.277 o
-3 -13 15 579.467 522.142 12.074 4.808 o
-3 -13 16 101.908 115.138 5.652 35.183 o
-3 -13 17 80.843 85.381 4.653 47.068 o
-3 -13 18 1409.710 1513.160 26.913 1.145 o
-3 -13 19 39.169 45.699 3.295 97.441 o
-3 -13 20 828.420 812.497 23.727 2.558 o
-3 -13 21 212.633 193.616 6.244 17.302 o
-3 -13 22 0.157 3.156 2.122 1456.980 o
-3 -13 23 1.119 1.658 1.891 1597.860 o
-3 -13 24 0.545 1.737 2.301 1393.010 o
-3 -12 1 28.844 18.722 2.869 156.824 o
-3 -12 2 7.923 10.678 2.684 384.159 o
-3 -12 3 2737.760 2745.450 36.657 0.401 o
-3 -12 4 175.217 195.235 6.161 19.898 o
-3 -12 5 465.859 473.886 11.122 6.103 o
-3 -12 6 265.224 240.827 6.952 13.315 o
-3 -12 7 472.575 447.750 9.862 6.272 o
-3 -12 8 43.377 34.991 2.896 101.582 o
-3 -12 9 12.752 18.899 2.455 263.881 o
-3 -12 10 73.156 68.934 3.472 56.612 o
-3 -12 11 2474.250 2500.610 31.209 0.479 o
-3 -12 12 397.914 417.094 8.493 7.584 o
-3 -12 13 3199.400 3107.080 43.514 0.308 o
-3 -12 14 168.052 154.100 5.544 22.674 o
-3 -12 15 207.819 206.887 5.025 17.595 o
-3 -12 16 191.041 189.544 4.777 19.462 o
-3 -12 17 57.520 72.080 3.389 65.295 o
-3 -12 18 1783.780 1818.060 39.661 0.769 o
-3 -12 19 388.473 400.913 8.855 7.826 o
-3 -12 20 74.931 73.604 7.171 45.071 o
-3 -12 21 710.277 698.257 16.088 3.402 o
-3 -12 22 133.547 147.084 5.822 26.877 o
-3 -12 23 14.763 16.938 2.319 257.912 o
-3 -12 24 145.144 119.505 5.109 27.747 o
-3 -12 25 309.804 282.663 16.507 8.923 o
-3 -12 26 581.734 526.828 20.182 4.255 o
-3 -12 27 17.287 11.359 2.032 269.091 o
-3 -11 1 2470.790 2306.470 47.118 0.473 o
-3 -11 2 2469.190 2482.060 38.632 0.471 o
-3 -11 3 1091.230 1009.280 25.695 1.787 o
-3 -11 4 295.354 298.271 7.792 11.134 o
-3 -11 5 1724.270 1662.400 30.317 0.876 o
-3 -11 6 147.638 126.756 4.437 27.360 o
-3 -11 7 3257.480 3053.330 37.843 0.309 o
-3 -11 8 2447.880 2459.810 28.708 0.493 o
-3 -11 9 603.087 480.110 7.509 4.998 o
-3 -11 10 1105.320 1059.980 15.062 1.865 o
-3 -11 11 119.550 122.678 4.320 32.331 o
-3 -11 12 183.925 138.724 3.780 22.682 o
-3 -11 13 69.889 74.134 3.269 57.402 o
-3 -11 14 1673.040 1621.140 22.991 0.948 o
-3 -11 15 467.693 440.538 8.789 6.450 o
-3 -11 16 58.016 66.649 3.063 67.790 o
-3 -11 17 493.970 482.343 8.049 5.967 o
-3 -11 18 685.364 648.225 11.123 3.806 o
-3 -11 19 33.053 35.467 3.532 115.018 o
-3 -11 20 212.992 182.915 5.069 18.028 o
-3 -11 21 98.175 108.031 5.241 37.436 o
-3 -11 22 55.491 66.332 3.323 69.050 o
-3 -11 23 197.774 205.031 7.320 17.441 o
-3 -11 24 12.829 9.329 2.381 326.034 o
-3 -11 25 20.171 26.389 2.380 185.085 o
-3 -11 26 324.243 370.551 10.583 9.042 o
-3 -11 27 4.466 5.192 1.968 721.940 o
-3 -11 28 13.175 11.818 2.056 316.651 o
-3 -11 29 0.381 -1.310 1.914 2426.570 o
-3 -10 1 442.134 437.770 9.444 6.732 o
-3 -10 2 2863.620 2683.320 42.754 0.379 o
-3 -10 3 310.781 293.781 8.557 10.620 o
-3 -10 4 589.357 537.015 10.831 4.745 o
-3 -10 5 256.198 231.664 5.487 14.223 o
-3 -10 6 220.739 183.733 4.486 17.664 o
-3 -10 7 207.710 230.667 4.657 16.965 o
-3 -10 8 4159.980 3777.890 35.029 0.207 o
-3 -10 9 5815.990 5760.370 66.204 0.104 o
-3 -10 10 2.151 6.880 2.007 840.627 o
-3 -10 11 658.416 662.600 12.275 3.870 o
-3 -10 12 4278.490 4318.590 52.618 0.180 o
-3 -10 13 3508.250 3248.720 38.405 0.274 o
-3 -10 14 465.113 484.347 7.835 6.286 o
-3 -10 15 201.324 181.675 4.803 18.977 o
-3 -10 16 3667.740 3910.020 43.983 0.231 o
-3 -10 17 856.645 857.127 13.011 2.681 o
-3 -10 18 5.506 8.375 2.083 552.885 o
-3 -10 19 246.141 228.986 5.536 14.736 o
-3 -10 20 147.724 161.825 5.232 24.620 o
-3 -10 21 1015.570 974.027 14.854 2.115 o
-3 -10 22 58.380 55.624 3.115 71.650 o
-3 -10 23 230.741 268.875 6.175 14.371 o
-3 -10 24 16.564 15.958 2.492 240.895 o
-3 -10 25 220.242 225.308 6.258 15.941 o
-3 -10 26 352.761 335.975 7.619 9.248 o
-3 -10 27 0.461 -0.293 2.315 1697.850 o
-3 -10 28 502.252 533.445 10.906 5.463 o
-3 -10 29 37.548 41.622 3.820 99.385 o
-3 -10 30 446.362 436.568 10.165 6.624 o
-3 -10 31 10.584 12.589 2.750 316.201 o
-3 -9 1 361.229 412.657 8.945 8.177 o
-3 -9 2 849.869 845.124 18.147 2.608 o
-3 -9 3 1641.880 1760.790 28.714 0.901 o
-3 -9 4 659.571 702.143 10.977 3.804 o
-3 -9 5 2358.790 2338.540 40.607 0.506 o
-3 -9 6 5018.300 4849.050 55.764 0.139 o
-3 -9 7 1029.970 1077.170 13.301 2.003 o
-3 -9 8 510.819 457.046 6.290 6.010 o
-3 -9 9 2849.160 2791.770 36.282 0.380 o
-3 -9 10 120.603 129.312 3.747 31.982 o
-3 -9 11 2796.060 2794.160 30.965 0.393 o
-3 -9 12 2841.570 2938.410 30.022 0.376 o
-3 -9 13 30.462 13.924 2.288 167.584 o
-3 -9 14 7653.370 7640.690 99.913 0.061 o
-3 -9 15 2081.600 2126.890 32.286 0.628 o
-3 -9 16 258.390 249.130 5.309 13.786 o
-3 -9 17 2832.130 2811.620 29.485 0.388 o
-3 -9 18 552.761 566.333 7.688 5.049 o
-3 -9 19 3930.680 3804.870 38.837 0.219 o
-3 -9 20 754.881 766.007 10.806 3.232 o
-3 -9 21 1535.480 1583.440 18.914 1.068 o
-3 -9 22 313.297 358.865 6.166 10.080 o
-3 -9 23 27.975 42.058 2.529 127.736 o
-3 -9 24 43.927 49.577 2.798 90.832 o
-3 -9 25 51.323 52.054 2.995 80.138 o
-3 -9 26 917.549 985.488 13.710 2.335 o
-3 -9 27 13.795 20.166 2.389 249.725 o
-3 -9 28 0.505 2.769 2.707 1015.780 o
-3 -9 29 924.344 966.546 21.146 2.211 o
-3 -9 30 279.511 317.573 11.053 10.597 o
-3 -9 31 319.536 337.110 8.758 9.818 o
-3 -9 32 95.966 93.086 4.156 41.593 o
-3 -8 1 2882.160 2759.250 42.762 0.371 o
-3 -8 2 72.095 65.537 3.712 57.539 o
-3 -8 3 194.204 187.008 5.550 19.031 o
-3 -8 4 4780.920 4462.380 69.164 0.150 o
-3 -8 5 779.013 807.735 14.917 2.967 o
-3 -8 6 215.843 168.744 4.365 18.536 o
-3 -8 7 3389.020 3394.860 47.269 0.273 o
-3 -8 8 1936.640 2067.920 20.326 0.718 o
-3 -8 9 623.814 649.051 7.751 4.251 o
-3 -8 10 46.353 46.372 2.235 92.073 o
-3 -8 11 233.585 238.027 4.116 15.437 o
-3 -8 12 2584.640 2511.260 25.122 0.463 o
-3 -8 13 789.008 685.417 10.281 3.269 o
-3 -8 14 692.567 724.546 9.249 3.632 o
-3 -8 15 318.418 352.582 5.981 10.053 o
-3 -8 16 1016.690 970.595 12.521 2.145 o
-3 -8 17 1214.310 1185.960 13.982 1.613 o
-3 -8 18 3.687 3.492 1.921 881.651 o
-3 -8 19 24.502 29.961 2.597 155.681 o
-3 -8 20 45.247 81.214 3.562 70.453 o
-3 -8 21 1440.110 1548.800 19.748 1.150 o
-3 -8 22 62.861 51.377 3.146 69.671 o
-3 -8 23 124.099 98.170 3.604 34.487 o
-3 -8 24 477.604 492.642 8.743 6.045 o
-3 -8 25 93.812 76.581 3.093 46.485 o
-3 -8 26 0.990 0.821 2.170 1517.850 o
-3 -8 27 1432.330 1565.470 21.868 1.138 o
-3 -8 28 156.807 157.328 4.821 24.087 o
-3 -8 29 24.355 30.762 2.892 151.068 o
-3 -8 30 48.573 53.257 3.107 81.929 o
-3 -8 31 15.532 11.489 3.094 249.982 o
-3 -8 32 105.623 124.624 12.627 23.602 o
-3 -8 33 96.008 93.233 6.452 37.820 o
-3 -7 1 1735.360 1878.820 45.448 0.749 o
-3 -7 2 1448.950 1531.590 35.697 1.046 o
-3 -7 3 1929.720 1985.350 46.636 0.655 o
-3 -7 4 1648.020 1567.570 35.220 0.918 o
-3 -7 5 3647.690 3847.550 93.311 0.203 o
-3 -7 6 1277.300 1297.290 27.214 1.357 o
-3 -7 7 1273.200 1182.570 26.819 1.426 o
-3 -7 8 397.242 416.249 7.139 7.722 o
-3 -7 9 4.168 15.424 1.443 525.398 o
-3 -7 10 97.380 111.292 2.421 40.409 o
-3 -7 11 40.670 44.274 2.023 102.840 o
-3 -7 12 102.148 89.603 3.040 41.627 o
-3 -7 13 327.755 359.802 5.868 9.751 o
-3 -7 14 405.872 421.612 6.639 7.582 o
-3 -7 15 82.841 87.610 3.886 47.327 o
-3 -7 16 10.544 14.684 2.110 332.732 o
-3 -7 17 33.906 45.957 2.721 109.493 o
-3 -7 18 1424.340 1536.490 25.213 1.136 o
-3 -7 19 336.455 331.939 7.096 9.727 o
-3 -7 20 146.048 142.550 4.597 26.406 o
-3 -7 21 127.901 135.401 4.573 29.567 o
-3 -7 22 1097.720 1046.990 15.443 1.885 o
-3 -7 23 465.648 419.539 8.175 6.647 o
-3 -7 24 8.080 10.648 3.074 351.723 o
-3 -7 25 0.125 3.269 2.574 1114.530 o
-3 -7 26 129.128 131.787 4.108 30.011 o
-3 -7 27 1.607 0.197 2.736 1027.250 o
-3 -7 28 17.974 23.220 2.561 202.873 o
-3 -7 29 298.853 295.587 6.524 11.293 o
-3 -7 30 19.645 20.248 2.864 195.424 o
-3 -7 31 33.075 46.810 3.039 108.111 o
-3 -7 32 396.792 457.413 12.392 6.897 o
-3 -7 33 303.453 348.188 10.679 9.716 o
-3 -6 1 153.729 136.045 10.618 20.985 o
-3 -6 2 3.683 33.967 8.199 104.794 o
-3 -6 3 1146.780 1111.150 37.181 1.466 o
-3 -6 4 34.694 75.302 8.259 57.220 o
-3 -6 5 45.267 10.106 5.265 98.888 o
-3 -6 6 175.324 180.992 13.828 15.666 o
-3 -6 7 460.907 385.173 20.715 5.566 o
-3 -6 8 1117.410 1140.600 40.471 1.429 o
-3 -6 9 252.764 384.889 32.816 5.284 o
-3 -6 10 458.498 380.873 32.716 4.149 o
-3 -6 11 792.902 848.024 51.643 1.697 o
-3 -6 12 1018.610 1069.310 27.516 1.822 o
-3 -6 13 677.079 606.362 7.962 4.055 o
-3 -6 14 3674.350 3599.000 39.925 0.244 o
-3 -6 15 208.174 227.154 4.677 17.038 o
-3 -6 16 14.899 21.178 1.955 246.483 o
-3 -6 17 267.956 266.973 5.936 12.923 o
-3 -6 18 788.884 781.049 11.061 3.068 o
-3 -6 19 1534.710 1535.400 19.601 1.083 o
-3 -6 20 526.474 540.653 9.631 5.290 o
-3 -6 21 546.962 489.233 9.060 5.365 o
-3 -6 22 604.295 629.376 12.649 4.254 o
-3 -6 23 7.317 10.657 3.064 366.618 o
-3 -6 24 31.271 18.305 3.214 144.612 o
-3 -6 25 56.075 46.586 3.619 75.752 o
-3 -6 26 140.426 146.896 5.432 26.287 o
-3 -6 27 740.423 801.515 16.058 3.083 o
-3 -6 28 38.294 45.919 3.417 97.805 o
-3 -6 29 627.995 634.951 14.630 4.011 o
-3 -6 30 49.039 62.960 3.736 74.252 o
-3 -6 31 141.987 162.742 6.832 24.096 o
-3 -6 32 189.412 227.317 7.621 17.139 o
-3 -6 33 14.115 12.011 2.547 283.290 o
-3 -6 34 13.595 9.601 3.922 241.106 o
-3 -6 35 8.982 9.068 2.997 355.420 o
-3 -5 1 18621.000 18714.100 427.821 0.010 o
-3 -5 2 61.147 56.273 7.996 50.632 o
-3 -5 3 880.523 948.351 30.939 2.087 o
-3 -5 4 3331.840 3063.610 67.377 0.276 o
-3 -5 5 347.472 337.242 17.202 7.681 o
-3 -5 6 15642.100 16863.900 413.468 0.012 o
-3 -5 7 10087.700 9880.810 237.550 0.032 o
-3 -5 8 4096.730 4006.560 215.488 0.107 o
-3 -5 9 5350.130 5566.050 200.725 0.083 o
-3 -5 10 1102.820 1039.940 55.319 1.239 o
-3 -5 11 2385.420 2065.230 89.463 0.400 o
-3 -5 12 666.207 682.711 42.446 2.348 o
-3 -5 13 674.986 576.292 37.988 2.664 o
-3 -5 14 2552.740 2497.430 103.850 0.321 o
-3 -5 15 4401.020 3943.250 54.639 0.183 o
-3 -5 16 2851.400 2441.710 27.448 0.417 o
-3 -5 17 31.681 25.375 2.233 143.110 o
-3 -5 18 1117.460 981.718 13.369 1.929 o
-3 -5 19 1039.240 1036.020 12.832 2.029 o
-3 -5 20 4897.600 4935.240 55.003 0.142 o
-3 -5 21 2929.490 2793.340 32.887 0.371 o
-3 -5 22 127.015 118.406 4.351 31.329 o
-3 -5 23 207.516 198.359 5.802 17.634 o
-3 -5 24 1.134 7.883 2.662 706.755 o
-3 -5 25 1.449 2.628 3.083 756.742 o
-3 -5 26 15.166 17.068 3.385 220.254 o
-3 -5 27 1468.970 1550.350 31.195 1.059 o
-3 -5 28 20.893 28.230 3.460 159.646 o
-3 -5 29 98.709 120.401 6.014 34.800 o
-3 -5 30 445.093 455.747 12.954 6.265 o
-3 -5 31 248.231 262.245 8.912 13.030 o
-3 -5 32 0.289 3.647 2.643 1017.920 o
-3 -5 33 50.736 60.093 3.420 75.251 o
-3 -5 34 9.305 9.682 3.238 327.710 o
-3 -5 35 477.195 462.289 15.658 5.639 o
-3 -4 1 4284.520 4343.150 84.283 0.167 o
-3 -4 2 5568.610 5069.120 146.966 0.098 o
-3 -4 3 2765.270 2915.150 50.399 0.367 o
-3 -4 4 836.442 964.503 48.734 1.660 o
-3 -4 5 4178.910 4528.700 160.569 0.128 o
-3 -4 6 136.236 192.728 9.718 20.867 o
-3 -4 7 29454.900 28729.000 525.426 0.004 o
-3 -4 8 359.987 253.475 12.624 9.125 o
-3 -4 9 181.880 137.297 11.882 17.875 o
-3 -4 10 211.027 153.216 17.485 12.596 o
-3 -4 11 1818.030 1766.900 76.151 0.582 o
-3 -4 12 1072.410 919.741 48.225 1.445 o
-3 -4 13 9708.710 9065.830 305.260 0.031 o
-3 -4 14 8730.560 8310.990 282.065 0.037 o
-3 -4 15 7875.110 7385.600 253.196 0.045 o
-3 -4 16 9118.430 8576.510 289.972 0.034 o
-3 -4 17 2758.940 2444.060 28.858 0.431 o
-3 -4 18 11029.500 11488.100 129.275 0.030 o
-3 -4 19 543.231 590.983 7.949 5.017 o
-3 -4 20 4634.080 4489.170 43.103 0.163 o
-3 -4 21 6192.310 6008.400 72.075 0.093 o
-3 -4 22 5392.200 5395.300 63.937 0.118 o
-3 -4 23 47.694 64.338 3.295 76.567 o
-3 -4 24 198.806 204.683 5.526 18.096 o
-3 -4 25 1115.880 1104.750 16.196 1.799 o
-3 -4 26 30.561 45.397 3.172 113.175 o
-3 -4 27 118.710 148.435 5.254 29.423 o
-3 -4 28 40.750 47.686 4.856 83.995 o
-3 -4 29 0.436 0.535 1.322 3696.000 o
-3 -4 30 186.194 213.400 11.392 15.806 o
-3 -4 31 1362.840 1437.700 27.051 1.214 o
-3 -4 32 972.257 1035.070 22.972 2.012 o
-3 -4 33 367.081 403.786 15.254 7.269 o
-3 -4 34 235.341 245.052 11.653 12.898 o
-3 -4 35 97.691 87.500 4.746 41.030 o
-3 -4 36 851.110 793.795 27.747 2.401 o
-3 -3 1 4451.640 4766.260 84.995 0.151 o
-3 -3 2 3613.460 3678.390 105.606 0.200 o
-3 -3 3 2769.250 2813.240 67.738 0.347 o
-3 -3 4 4089.510 3878.010 148.044 0.146 o
-3 -3 5 3629.620 3419.020 250.822 0.101 o
-3 -3 6 194.366 137.943 8.365 19.417 o
-3 -3 7 131.903 117.339 7.769 27.206 o
-3 -3 8 6057.310 5876.720 165.882 0.080 o
-3 -3 9 2626.670 2794.980 74.340 0.355 o
-3 -3 10 6669.070 6361.350 153.194 0.072 o
-3 -3 11 8321.240 8538.470 201.218 0.045 o
-3 -3 12 7265.570 7624.060 181.238 0.056 o
-3 -3 13 12.902 13.099 3.381 255.411 o
-3 -3 14 5511.790 5264.420 264.338 0.067 o
-3 -3 15 7636.660 6793.840 221.371 0.052 o
-3 -3 16 6135.790 5518.170 129.994 0.089 o
-3 -3 17 262.064 233.421 12.701 11.818 o
-3 -3 18 964.978 914.853 13.112 2.315 o
-3 -3 19 2604.710 2527.450 31.152 0.450 o
-3 -3 20 2303.150 2205.280 27.768 0.561 o
-3 -3 21 237.703 227.978 5.373 15.210 o
-3 -3 22 2690.120 2542.310 38.268 0.424 o
-3 -3 23 2564.590 2497.940 31.807 0.460 o
-3 -3 24 577.517 601.890 8.615 4.689 o
-3 -3 25 873.713 886.654 12.533 2.597 o
-3 -3 26 341.276 312.731 8.652 9.614 o
-3 -3 27 30.527 45.610 3.319 111.852 o
-3 -3 28 2.943 3.308 2.407 819.473 o
-3 -3 29 9.690 6.202 2.431 415.135 o
-3 -3 30 156.247 149.207 7.457 22.833 o
-3 -3 31 157.683 164.279 12.911 17.742 o
-3 -3 32 58.925 64.683 5.279 60.438 o
-3 -3 33 0.213 4.896 2.605 960.573 o
-3 -3 34 715.121 778.428 21.570 3.024 o
-3 -3 35 30.940 39.690 4.275 107.989 o
-3 -3 36 45.020 56.757 3.181 83.561 o
-3 -2 1 1683.260 1684.260 37.660 0.855 o
-3 -2 2 2598.970 2488.260 42.070 0.439 o
-3 -2 3 8879.560 7943.240 147.254 0.047 o
-3 -2 4 9714.650 8321.930 397.943 0.026 o
-3 -2 5 16.136 22.882 6.505 123.085 o
-3 -2 6 10481.200 10303.400 192.550 0.032 o
-3 -2 7 1179.680 1138.570 27.674 1.549 o
-3 -2 8 15638.800 15897.900 687.355 0.009 o
-3 -2 9 11.394 20.620 13.468 47.968 o
-3 -2 10 3168.720 3279.490 83.055 0.264 o
-3 -2 11 18939.000 19340.800 656.177 0.008 o
-3 -2 12 8453.510 8168.080 224.022 0.043 o
-3 -2 13 88.456 40.705 3.971 54.879 o
-3 -2 14 2864.560 2950.970 72.124 0.321 o
-3 -2 15 4315.780 3962.530 128.272 0.150 o
-3 -2 16 3099.770 3167.080 72.929 0.286 o
-3 -2 17 259.584 298.626 10.066 11.692 o
-3 -2 18 999.382 854.232 22.857 2.137 o
-3 -2 19 602.193 526.129 9.050 4.769 o
-3 -2 20 5968.850 5706.600 70.073 0.101 o
-3 -2 21 141.858 126.561 4.120 28.415 o
-3 -2 22 818.491 802.322 19.900 2.713 o
-3 -2 23 75.302 83.285 3.485 52.041 o
-3 -2 24 1477.680 1369.190 16.587 1.210 o
-3 -2 25 409.283 430.112 8.757 7.291 o
-3 -2 26 175.862 138.137 4.308 23.321 o
-3 -2 27 339.858 362.606 9.769 8.937 o
-3 -2 28 358.715 375.989 8.455 8.617 o
-3 -2 29 126.123 114.101 4.575 31.681 o
-3 -2 30 747.155 716.010 14.136 3.278 o
-3 -2 31 135.105 146.658 7.226 25.480 o
-3 -2 32 61.725 55.520 4.732 63.598 o
-3 -2 33 319.422 336.113 7.448 10.038 o
-3 -2 34 52.228 54.264 4.534 71.796 o
-3 -2 35 247.952 250.896 7.873 13.564 o
-3 -2 36 78.519 88.286 3.966 48.731 o
-3 -2 37 15.280 20.477 2.827 223.763 o
-3 -1 1 342.474 362.671 11.850 8.551 o
-3 -1 2 17345.700 16481.800 299.497 0.012 o
-3 -1 3 9430.860 9249.400 208.291 0.037 o
-3 -1 4 7442.730 7470.630 238.855 0.049 o
-3 -1 5 557.168 573.710 13.185 4.721 o
-3 -1 6 15.595 8.284 3.134 263.158 o
-3 -1 7 1917.210 1882.520 50.090 0.661 o
-3 -1 8 1953.820 1734.590 78.244 0.544 o
-3 -1 9 14.127 14.865 4.631 192.251 o
-3 -1 10 2196.030 2167.340 56.639 0.523 o
-3 -1 11 84.506 64.169 6.891 44.231 o
-3 -1 12 3699.680 3564.640 167.841 0.149 o
-3 -1 13 624.750 399.825 18.435 4.507 o
-3 -1 14 93.234 107.133 13.727 24.096 o
-3 -1 15 65.415 97.726 15.728 23.952 o
-3 -1 16 7466.000 7011.000 156.966 0.060 o
-3 -1 17 6344.270 5980.120 134.805 0.081 o
-3 -1 18 2532.970 2384.930 56.814 0.433 o
-3 -1 19 179.366 174.752 7.859 19.466 o
-3 -1 20 358.945 355.575 7.367 8.943 o
-3 -1 21 218.811 231.356 5.498 16.078 o
-3 -1 22 746.192 753.052 13.211 3.234 o
-3 -1 23 1545.100 1517.560 21.416 1.074 o
-3 -1 24 144.304 125.127 4.336 28.018 o
-3 -1 25 23.151 33.436 2.691 153.137 o
-3 -1 26 655.308 629.671 10.923 4.024 o
-3 -1 27 79.883 88.026 4.115 47.971 o
-3 -1 28 55.475 71.451 4.272 64.121 o
-3 -1 29 215.743 184.751 6.114 17.431 o
-3 -1 30 663.118 688.284 17.970 3.553 o
-3 -1 31 518.402 540.106 13.020 5.156 o
-3 -1 32 224.580 209.969 8.312 15.397 o
-3 -1 33 26.507 33.401 3.518 132.732 o
-3 -1 34 86.105 81.472 5.057 45.074 o
-3 -1 35 131.061 129.945 5.486 28.737 o
-3 -1 36 195.284 192.760 5.984 18.574 o
-3 -1 37 67.747 50.836 4.044 63.585 o
-3 0 1 7428.340 7067.270 174.562 0.058 o
-3 0 2 11194.800 10692.000 248.806 0.027 o
-3 0 3 35270.000 33512.000 735.807 0.003 o
-3 0 4 36945.800 35933.300 1120.920 0.002 o
-3 0 5 71613.200 69593.000 1252.230 0.001 o
-3 0 6 8108.530 7766.630 178.874 0.050 o
-3 0 7 945.366 893.591 37.403 1.857 o
-3 0 8 17562.600 16710.100 528.448 0.010 o
-3 0 9 3387.050 3228.600 110.717 0.220 o
-3 0 10 2689.200 2067.740 74.268 0.395 o
-3 0 11 4286.820 4492.730 149.331 0.131 o
-3 0 12 353.723 280.835 10.141 9.444 o
-3 0 13 1520.440 1610.000 59.209 0.805 o
-3 0 14 733.459 578.377 26.051 3.109 o
-3 0 15 19176.900 14907.000 2132.450 0.002 o
-3 0 16 17942.200 16543.200 517.378 0.010 o
-3 0 17 972.856 930.610 34.208 1.864 o
-3 0 18 5435.210 4855.210 156.493 0.100 o
-3 0 19 436.242 405.610 18.492 5.984 o
-3 0 20 5410.110 5000.150 94.121 0.116 o
-3 0 21 528.399 591.091 11.907 4.943 o
-3 0 22 2850.920 2793.530 42.828 0.372 o
-3 0 23 15619.300 14914.200 210.335 0.016 o
-3 0 24 3547.690 3520.380 60.350 0.245 o
-3 0 25 155.655 150.180 5.464 24.236 o
-3 0 26 429.366 445.400 10.057 6.793 o
-3 0 27 104.570 105.215 6.551 34.374 o
-3 0 28 130.510 128.533 8.750 25.571 o
-3 0 29 3634.120 3677.860 83.996 0.216 o
-3 0 30 77.110 81.493 5.878 46.390 o
-3 0 31 86.064 77.880 5.389 45.015 o
-3 0 32 525.093 530.869 13.872 5.080 o
-3 0 33 309.577 325.029 13.066 9.333 o
-3 0 34 140.488 129.835 6.038 26.921 o
-3 0 35 6.606 5.480 2.589 502.602 o
-3 0 36 143.503 122.396 4.501 28.222 o
-3 1 1 39669.900 40847.200 1276.280 0.002 o
-3 1 2 1683.340 1725.590 95.162 0.518 o
-3 1 3 49097.900 46747.500 1075.480 0.001 o
-3 1 4 70871.900 67529.200 2075.280 0.001 o
-3 1 5 7289.460 7247.860 533.206 0.024 o
-3 1 6 9273.400 8172.430 264.399 0.036 o
-3 1 7 156.849 134.420 11.488 20.014 o
-3 1 8 10814.100 10056.100 322.424 0.026 o
-3 1 9 22025.900 20061.800 631.982 0.007 o
-3 1 10 354.815 379.237 20.279 6.727 o
-3 1 11 1076.440 991.499 39.892 1.565 o
-3 1 12 1271.040 1102.080 28.613 1.452 o
-3 1 13 291.032 322.925 13.210 9.726 o
-3 1 14 497.204 273.246 9.036 7.130 o
-3 1 15 5989.120 5791.680 156.250 0.084 o
-3 1 16 20741.100 19885.700 470.290 0.008 o
-3 1 17 4300.840 4111.900 95.179 0.165 o
-3 1 18 51.773 32.914 6.635 69.115 o
-3 1 19 8504.980 7985.010 146.859 0.049 o
-3 1 20 941.545 928.923 19.919 2.239 o
-3 1 21 713.616 693.550 12.324 3.523 o
-3 1 22 104.362 120.684 5.374 34.432 o
-3 1 23 17.446 14.036 2.677 236.232 o
-3 1 24 1341.460 1402.530 23.940 1.273 o
-3 1 25 9.450 16.079 4.311 231.035 o
-3 1 26 154.653 149.334 6.606 23.621 o
-3 1 27 252.330 291.541 9.071 12.312 o
-3 1 28 2070.280 1950.720 35.830 0.651 o
-3 1 29 723.937 727.922 18.561 3.197 o
-3 1 30 580.445 577.878 13.300 4.539 o
-3 1 31 357.223 357.192 9.518 8.686 o
-3 1 32 100.630 105.839 5.246 37.101 o
-3 1 33 1.610 2.424 5.856 266.606 o
-3 1 34 3.699 4.499 3.620 470.102 o
-3 1 35 202.573 217.732 6.877 16.942 o
-3 1 36 247.138 254.958 8.334 13.383 o
-3 2 1 8653.450 9003.380 204.069 0.041 o
-3 2 2 1681.600 2060.120 71.599 0.602 o
-3 2 3 6689.610 6953.060 222.793 0.058 o
-3 2 4 25471.700 25096.600 556.620 0.005 o
-3 2 5 3644.750 3649.770 170.689 0.148 o
-3 2 6 6400.230 6394.110 210.191 0.065 o
-3 2 7 1204.960 1226.370 49.104 1.188 o
-3 2 8 653.666 613.920 29.221 3.155 o
-3 2 9 867.866 867.181 37.386 2.001 o
-3 2 10 41.165 17.833 2.347 126.490 o
-3 2 11 1516.350 1632.850 40.363 0.940 o
-3 2 12 1193.880 1006.040 18.349 1.732 o
-3 2 13 1353.860 1345.550 21.208 1.308 o
-3 2 14 52.705 57.582 3.005 76.096 o
-3 2 15 1622.690 1820.500 32.861 0.876 o
-3 2 16 11.769 35.816 4.553 158.063 o
-3 2 17 1065.170 963.380 19.660 1.963 o
-3 2 18 99.505 121.579 5.494 35.218 o
-3 2 19 201.630 232.106 11.545 14.551 o
-3 2 20 1462.570 1427.030 24.263 1.155 o
-3 2 21 496.018 542.684 10.450 5.506 o
-3 2 22 126.519 126.989 4.678 30.398 o
-3 2 23 135.060 160.097 5.375 26.169 o
-3 2 24 1253.620 1299.080 21.539 1.434 o
-3 2 25 8.720 14.474 2.923 320.043 o
-3 2 26 735.687 676.036 13.899 3.416 o
-3 2 27 3112.340 3039.500 46.936 0.319 o
-3 2 28 31.386 22.570 3.751 131.261 o
-3 2 29 241.183 248.703 9.842 13.262 o
-3 2 30 139.206 147.712 6.674 25.407 o
-3 2 31 450.676 446.547 18.450 5.658 o
-3 2 32 840.228 835.632 19.367 2.618 o
-3 2 33 1388.510 1328.760 58.488 0.935 o
-3 2 34 20.808 13.250 3.599 191.010 o
-3 2 35 80.762 72.856 4.170 50.584 o
-3 2 36 114.099 92.379 4.163 36.849 o
-3 3 1 3217.540 2923.200 102.008 0.251 o
-3 3 2 20345.700 19648.400 619.527 0.007 o
-3 3 3 1111.120 1441.910 54.828 1.102 o
-3 3 4 7273.930 7122.810 165.081 0.060 o
-3 3 5 9239.490 9707.680 221.952 0.036 o
-3 3 6 13153.600 13266.200 424.856 0.016 o
-3 3 7 8798.140 8580.660 598.514 0.018 o
-3 3 8 8.120 12.304 2.614 368.583 o
-3 3 9 7.450 16.729 2.944 320.918 o
-3 3 10 103.831 170.713 10.878 23.715 o
-3 3 11 1982.310 2255.240 56.637 0.564 o
-3 3 12 3.342 14.983 2.317 482.343 o
-3 3 13 494.125 454.969 9.652 6.011 o
-3 3 14 1950.950 2031.040 51.724 0.621 o
-3 3 15 1254.530 1374.220 34.355 1.269 o
-3 3 16 453.886 387.346 18.077 5.952 o
-3 3 17 24.667 24.511 5.959 113.010 o
-3 3 18 2415.940 2392.640 88.091 0.378 o
-3 3 19 262.675 270.343 7.681 12.676 o
-3 3 20 822.297 809.164 17.280 2.763 o
-3 3 21 116.685 162.572 6.579 27.441 o
-3 3 22 239.516 260.752 8.530 13.513 o
-3 3 23 71.736 63.849 4.793 55.311 o
-3 3 24 1479.290 1486.060 30.434 1.079 o
-3 3 25 3029.190 2953.870 46.174 0.335 o
-3 3 26 796.471 835.713 18.530 2.768 o
-3 3 27 243.374 212.167 9.064 14.190 o
-3 3 28 77.927 88.494 6.002 44.599 o
-3 3 29 164.635 159.441 7.301 21.662 o
-3 3 30 154.477 140.218 7.987 23.039 o
-3 3 31 24.265 27.482 4.182 137.903 o
-3 3 32 191.397 173.937 8.990 18.002 o
-3 3 33 0.261 -0.054 3.184 973.298 o
-3 3 34 13.330 6.960 2.251 343.768 o
-3 3 35 37.191 28.601 3.129 117.108 o
-3 4 1 6923.700 6326.500 148.269 0.070 o
-3 4 2 1881.540 1964.250 67.781 0.581 o
-3 4 3 7585.550 8378.620 273.961 0.042 o
-3 4 4 2633.410 2662.690 96.759 0.319 o
-3 4 5 8346.860 8381.030 586.737 0.019 o
-3 4 6 3800.790 4107.930 135.824 0.160 o
-3 4 7 135.472 143.506 8.706 24.198 o
-3 4 8 1217.230 1167.870 34.202 1.405 o
-3 4 9 5183.140 4359.790 95.164 0.131 o
-3 4 10 211.245 265.377 16.475 11.393 o
-3 4 11 2252.700 1871.400 47.689 0.573 o
-3 4 12 2258.680 2235.340 48.319 0.524 o
-3 4 13 44.632 55.733 7.033 63.820 o
-3 4 14 7700.060 8093.970 181.116 0.051 o
-3 4 15 1067.770 977.313 23.567 1.885 o
-3 4 16 13536.300 13303.000 245.851 0.019 o
-3 4 17 4.621 5.836 3.304 466.936 o
-3 4 18 208.895 208.938 7.785 16.468 o
-3 4 19 4005.190 3841.400 65.681 0.201 o
-3 4 20 2213.540 2273.130 36.143 0.560 o
-3 4 21 2603.230 2725.880 42.667 0.417 o
-3 4 22 349.271 352.133 9.850 8.842 o
-3 4 23 21.854 29.401 3.536 152.747 o
-3 4 24 5524.560 5419.690 80.620 0.112 o
-3 4 25 193.564 225.978 7.307 17.062 o
-3 4 26 73.433 72.504 4.523 53.123 o
-3 4 27 849.616 870.925 16.802 2.604 o
-3 4 28 11.225 13.168 3.426 269.818 o
-3 4 29 322.605 348.518 10.941 9.242 o
-3 4 30 1.470 0.101 3.672 652.257 o
-3 4 31 66.044 61.044 7.628 49.108 o
-3 4 32 1547.650 1427.150 69.661 0.750 o
-3 4 33 16.766 14.804 3.259 220.900 o
-3 4 34 0.395 -0.993 1.830 2610.540 o
-3 4 35 158.454 128.274 4.796 25.612 o
-3 5 1 7203.430 7720.450 388.314 0.034 o
-3 5 2 12219.800 10583.600 346.995 0.021 o
-3 5 3 1432.360 1233.650 54.547 0.976 o
-3 5 4 5810.080 5668.670 269.183 0.062 o
-3 5 5 14693.800 13644.400 397.803 0.015 o
-3 5 6 4069.740 3679.300 75.414 0.197 o
-3 5 7 4339.800 3680.130 94.566 0.173 o
-3 5 8 989.122 768.637 34.246 1.967 o
-3 5 9 11326.300 10525.700 194.584 0.029 o
-3 5 10 17783.200 16481.400 384.085 0.011 o
-3 5 11 7253.050 6981.490 135.620 0.065 o
-3 5 12 5841.720 5879.260 118.875 0.093 o
-3 5 13 6.419 12.255 4.890 242.040 o
-3 5 14 78.359 61.912 4.282 53.891 o
-3 5 15 1392.170 1249.120 32.055 1.226 o
-3 5 16 231.488 209.476 9.345 14.675 o
-3 5 17 9905.840 9463.600 153.898 0.037 o
-3 5 18 134.210 116.557 5.810 28.979 o
-3 5 19 43.155 43.359 3.455 92.547 o
-3 5 20 2919.180 3006.950 46.049 0.345 o
-3 5 21 371.938 361.700 9.267 8.402 o
-3 5 22 6238.510 6118.260 102.341 0.087 o
-3 5 23 1371.320 1450.390 25.214 1.215 o
-3 5 24 489.050 499.352 11.566 5.701 o
-3 5 25 2196.130 2218.060 35.875 0.572 o
-3 5 26 403.599 426.791 10.285 7.246 o
-3 5 27 159.716 190.939 6.367 21.266 o
-3 5 28 133.693 152.094 7.561 25.017 o
-3 5 29 361.768 395.008 11.926 7.923 o
-3 5 30 67.604 67.337 5.380 54.724 o
-3 5 31 50.084 40.920 6.771 66.624 o
-3 5 32 147.888 134.017 7.062 24.862 o
-3 5 33 3.046 2.493 2.368 863.062 o
-3 5 34 11.747 14.422 3.237 266.624 o
-3 6 1 320.524 449.375 30.966 4.942 o
-3 6 2 3542.670 3252.140 122.731 0.199 o
-3 6 3 25392.400 23143.300 753.282 0.005 o
-3 6 4 5827.050 5471.670 134.578 0.093 o
-3 6 5 25.598 32.565 7.292 88.341 o
-3 6 6 6110.200 5042.300 127.507 0.094 o
-3 6 7 1145.170 1126.270 37.544 1.454 o
-3 6 8 4471.270 3977.660 125.796 0.146 o
-3 6 9 728.658 730.174 28.114 2.789 o
-3 6 10 1439.970 1372.730 55.510 0.926 o
-3 6 11 1990.860 1944.560 48.650 0.634 o
-3 6 12 903.186 937.438 22.074 2.269 o
-3 6 13 1304.450 1290.650 24.737 1.356 o
-3 6 14 656.635 651.148 19.162 3.611 o
-3 6 15 461.599 578.547 18.101 5.051 o
-3 6 16 4970.270 5101.230 91.832 0.127 o
-3 6 17 147.230 158.297 5.641 24.617 o
-3 6 18 10.870 17.096 5.716 167.081 o
-3 6 19 593.205 625.705 13.285 4.304 o
-3 6 20 511.081 527.315 13.515 5.235 o
-3 6 21 324.469 298.503 7.455 10.385 o
-3 6 22 272.297 268.097 7.905 12.322 o
-3 6 23 2634.170 2706.200 43.744 0.412 o
-3 6 24 480.783 506.192 11.523 5.752 o
-3 6 25 94.550 118.816 5.959 35.963 o
-3 6 26 178.972 185.482 8.747 18.587 o
-3 6 27 32.993 35.538 4.790 102.952 o
-3 6 28 911.745 975.727 23.021 2.189 o
-3 6 29 52.706 43.226 4.823 74.647 o
-3 6 30 3.951 4.441 5.178 285.829 o
-3 6 31 147.894 146.258 10.115 21.507 o
-3 6 32 30.675 23.264 2.523 146.817 o
-3 6 33 152.901 104.477 6.027 26.966 o
-3 7 1 1024.680 1080.490 57.686 1.242 o
-3 7 2 8182.870 8156.670 281.787 0.039 o
-3 7 3 3945.830 4134.470 108.182 0.172 o
-3 7 4 2830.340 2631.910 74.540 0.340 o
-3 7 5 3765.320 3489.220 165.506 0.150 o
-3 7 6 1226.190 1071.200 82.445 0.806 o
-3 7 7 761.394 667.982 27.752 2.800 o
-3 7 8 2239.130 2393.750 70.393 0.451 o
-3 7 9 3795.490 3731.610 102.389 0.192 o
-3 7 10 4449.250 4764.690 127.221 0.134 o
-3 7 11 972.490 988.069 49.627 1.481 o
-3 7 12 1749.570 1716.270 56.497 0.715 o
-3 7 13 3708.050 3472.050 79.550 0.221 o
-3 7 14 1899.930 2038.900 72.459 0.548 o
-3 7 15 472.635 438.175 30.266 4.201 o
-3 7 16 466.627 512.363 19.156 5.169 o
-3 7 17 1031.290 1138.480 34.717 1.626 o
-3 7 18 340.461 350.063 12.139 8.655 o
-3 7 19 2.696 7.619 3.078 539.785 o
-3 7 20 433.537 456.968 17.046 5.934 o
-3 7 21 810.055 787.587 17.403 2.831 o
-3 7 22 1610.400 1665.940 42.166 0.870 o
-3 7 23 503.363 495.347 15.252 5.298 o
-3 7 24 233.421 251.600 10.376 13.320 o
-3 7 25 111.445 101.763 6.804 32.976 o
-3 7 26 1113.300 1159.730 26.941 1.630 o
-3 7 27 647.458 649.091 21.888 3.517 o
-3 7 28 209.125 246.821 11.934 13.747 o
-3 7 29 1782.870 1844.980 46.236 0.733 o
-3 7 30 55.811 57.434 7.181 56.243 o
-3 7 31 737.684 671.111 25.592 2.961 o
-3 7 32 2.210 0.199 2.567 1029.130 o
-3 8 1 19.118 65.848 15.729 31.413 o
-3 8 2 1228.290 1227.460 66.396 0.953 o
-3 8 3 497.550 399.195 33.748 3.826 o
-3 8 4 2421.440 2444.790 191.072 0.182 o
-3 8 5 2087.130 1629.820 54.698 0.628 o
-3 8 6 630.607 434.061 45.900 2.489 o
-3 8 7 4616.810 4264.160 194.291 0.106 o
-3 8 8 880.078 869.689 29.223 2.211 o
-3 8 9 455.211 520.788 17.597 5.383 o
-3 8 10 5803.330 5852.130 127.459 0.092 o
-3 8 11 546.226 566.429 16.328 4.624 o
-3 8 12 1546.980 1640.960 29.235 0.990 o
-3 8 13 55.662 55.241 5.158 66.039 o
-3 8 14 2668.660 3005.730 83.238 0.322 o
-3 8 15 158.009 185.198 18.039 13.522 o
-3 8 16 2788.820 2783.200 100.234 0.293 o
-3 8 17 490.431 482.741 44.515 2.826 o
-3 8 18 144.369 171.365 11.846 19.260 o
-3 8 19 0.933 5.985 4.567 385.287 o
-3 8 20 2828.250 2919.510 58.466 0.347 o
-3 8 21 89.161 75.547 5.833 43.427 o
-3 8 22 204.242 220.186 8.769 15.995 o
-3 8 23 835.813 878.739 21.764 2.508 o
-3 8 24 196.794 206.007 8.530 16.918 o
-3 8 25 869.695 936.532 26.731 2.230 o
-3 8 26 305.355 264.520 9.579 10.961 o
-3 8 27 17.733 17.704 4.789 164.338 o
-3 8 28 276.253 274.480 11.086 11.276 o
-3 8 29 44.496 44.427 6.552 70.799 o
-3 8 30 448.597 426.481 17.919 5.833 o
-3 8 31 326.506 255.681 7.703 10.868 o
-3 9 1 151.151 212.396 17.146 13.850 o
-3 9 2 310.349 332.092 21.277 7.368 o
-3 9 3 12785.200 11845.500 283.129 0.021 o
-3 9 4 2785.340 2578.420 77.227 0.343 o
-3 9 5 122.966 121.538 6.232 29.927 o
-3 9 6 5323.960 5520.650 134.235 0.102 o
-3 9 7 1688.330 1771.500 36.147 0.839 o
-3 9 8 10414.000 10293.600 126.918 0.034 o
-3 9 9 333.306 358.960 12.458 8.648 o
-3 9 10 3643.950 3762.060 76.641 0.218 o
-3 9 11 4498.620 4691.080 79.403 0.153 o
-3 9 12 3895.510 4073.550 73.406 0.197 o
-3 9 13 234.850 285.389 11.843 12.153 o
-3 9 14 0.573 4.468 5.416 306.304 o
-3 9 15 441.404 481.276 16.303 5.822 o
-3 9 16 1423.040 1486.070 36.521 1.073 o
-3 9 17 2243.670 2304.290 65.757 0.472 o
-3 9 18 8368.260 8862.220 170.987 0.046 o
-3 9 19 184.185 216.824 9.117 17.050 o
-3 9 20 1008.240 1025.190 32.428 1.778 o
-3 9 21 2895.720 2983.130 78.290 0.308 o
-3 9 22 181.291 199.453 8.720 17.980 o
-3 9 23 3890.380 3919.880 94.957 0.188 o
-3 9 24 79.230 106.448 5.970 41.462 o
-3 9 25 879.707 862.987 31.514 2.154 o
-3 9 26 4117.680 4159.750 137.653 0.147 o
-3 9 27 164.531 177.373 12.014 17.613 o
-3 9 28 868.004 846.128 32.279 2.171 o
-3 9 29 72.936 63.687 5.952 51.336 o
-3 9 30 4.314 2.228 2.150 816.719 o
-3 10 1 3406.650 3489.220 48.595 0.266 o
-3 10 2 1064.790 1296.020 25.374 1.625 o
-3 10 3 10446.200 10471.200 137.157 0.033 o
-3 10 4 7189.170 7219.370 96.070 0.068 o
-3 10 5 7629.140 7493.290 101.029 0.062 o
-3 10 6 6577.100 6681.780 90.121 0.080 o
-3 10 7 2933.280 2989.860 44.737 0.346 o
-3 10 8 155.407 162.668 5.832 23.358 o
-3 10 9 7032.600 7424.920 108.845 0.067 o
-3 10 10 8958.280 9105.780 121.875 0.044 o
-3 10 11 6264.680 6355.340 111.018 0.084 o
-3 10 12 5729.230 5895.150 117.932 0.095 o
-3 10 13 5143.550 5358.030 108.625 0.115 o
-3 10 14 47.782 69.051 6.617 60.002 o
-3 10 15 362.216 328.908 13.230 8.261 o
-3 10 16 1004.510 975.523 26.896 1.933 o
-3 10 17 816.473 783.127 28.539 2.470 o
-3 10 18 99.535 91.835 7.429 35.395 o
-3 10 19 3359.620 3466.080 98.972 0.227 o
-3 10 20 17.395 24.549 7.358 104.283 o
-3 10 21 125.698 135.871 7.125 27.490 o
-3 10 22 1.589 2.840 3.640 580.729 o
-3 10 23 78.873 66.483 4.389 52.331 o
-3 10 24 59.076 55.292 4.425 66.638 o
-3 10 25 51.162 50.610 5.471 69.512 o
-3 10 26 278.723 269.362 14.498 10.289 o
-3 10 27 94.478 87.268 7.505 36.895 o
-3 10 28 25.215 24.213 3.896 144.450 o
-3 11 1 388.815 414.309 8.127 7.785 o
-3 11 2 4845.170 5095.760 64.122 0.139 o
-3 11 3 98.110 159.497 5.970 31.206 o
-3 11 4 561.496 523.726 12.821 4.894 o
-3 11 5 1518.500 1509.320 27.843 1.060 o
-3 11 6 2519.490 2709.300 39.335 0.438 o
-3 11 7 836.355 847.319 15.136 2.713 o
-3 11 8 14.256 14.361 3.455 235.024 o
-3 11 9 771.232 838.793 18.182 2.852 o
-3 11 10 140.829 156.716 10.320 21.478 o
-3 11 11 586.291 581.342 14.962 4.398 o
-3 11 12 921.499 926.818 25.848 2.155 o
-3 11 13 22.788 29.647 5.230 122.621 o
-3 11 14 591.293 626.231 24.933 3.633 o
-3 11 15 263.435 284.633 10.153 11.767 o
-3 11 16 320.939 347.894 11.835 9.115 o
-3 11 17 1067.740 1096.760 25.811 1.755 o
-3 11 18 72.755 61.796 5.510 53.189 o
-3 11 19 259.373 246.486 9.444 12.751 o
-3 11 20 758.064 764.761 16.496 3.072 o
-3 11 21 100.922 106.582 5.990 35.861 o
-3 11 22 578.617 552.306 19.393 4.255 o
-3 11 23 11.140 11.569 3.803 260.193 o
-3 11 24 0.015 -1.906 4.742 454.856 o
-3 11 25 578.831 622.747 24.794 3.705 o
-3 11 26 327.830 314.300 13.806 8.911 o
-3 12 1 126.377 136.112 5.226 29.212 o
-3 12 2 7613.350 7694.800 97.831 0.061 o
-3 12 3 1503.430 1682.750 33.513 0.978 o
-3 12 4 80.758 104.008 5.896 41.518 o
-3 12 5 3411.600 3453.410 54.118 0.263 o
-3 12 6 875.154 878.225 17.644 2.506 o
-3 12 7 1042.390 1184.200 22.120 1.781 o
-3 12 8 328.189 329.223 10.364 9.434 o
-3 12 9 350.673 331.401 13.088 8.468 o
-3 12 10 0.369 2.946 4.174 509.353 o
-3 12 11 190.643 203.153 10.631 16.262 o
-3 12 12 868.318 982.723 28.941 2.129 o
-3 12 13 665.725 681.714 18.122 3.550 o
-3 12 14 289.601 297.947 9.014 11.058 o
-3 12 15 421.617 446.633 13.501 6.529 o
-3 12 16 1547.730 1666.110 35.732 0.943 o
-3 12 17 415.127 437.238 12.979 6.725 o
-3 12 18 17.278 21.478 3.987 178.280 o
-3 12 19 615.972 672.305 14.555 3.978 o
-3 12 20 106.276 113.055 4.944 35.368 o
-3 12 21 4.035 3.798 2.965 586.807 o
-3 12 22 190.863 182.197 6.374 19.103 o
-3 12 23 223.241 235.880 10.371 14.050 o
-3 12 24 277.785 255.209 8.291 12.263 o
-3 13 1 322.769 372.614 9.364 9.250 o
-3 13 2 155.284 189.298 7.063 21.317 o
-3 13 3 339.544 327.364 7.892 9.600 o
-3 13 4 1170.220 1276.120 25.595 1.503 o
-3 13 5 2468.180 2632.160 48.298 0.440 o
-3 13 6 3513.250 3453.740 60.832 0.250 o
-3 13 7 25.758 27.753 4.475 129.146 o
-3 13 8 2610.340 2705.520 65.694 0.379 o
-3 13 9 1982.810 2013.580 63.467 0.568 o
-3 13 10 416.971 391.646 14.261 6.831 o
-3 13 11 2150.100 2399.990 59.784 0.498 o
-3 13 12 2831.310 3033.910 73.598 0.318 o
-3 13 13 2170.560 2263.160 39.781 0.564 o
-3 13 14 599.709 651.408 14.246 4.142 o
-3 13 15 88.770 87.941 8.474 36.101 o
-3 13 16 4.603 5.935 3.345 460.241 o
-3 13 17 93.375 117.546 7.737 33.480 o
-3 13 18 393.670 408.113 9.749 7.590 o
-3 13 19 1725.970 1772.390 35.448 0.824 o
-3 13 20 95.376 72.372 4.045 45.281 o
-3 13 21 873.216 797.079 20.620 2.548 o
-3 13 22 142.019 122.124 12.584 20.566 o
-3 14 1 39.890 48.605 4.262 88.391 o
-3 14 2 654.831 648.998 14.647 3.831 o
-3 14 3 209.015 226.327 8.868 15.546 o
-3 14 4 290.220 214.807 14.863 10.565 o
-3 14 5 1012.670 1087.040 26.680 1.833 o
-3 14 6 3286.860 3345.990 65.328 0.269 o
-3 14 7 406.905 416.996 9.560 7.344 o
-3 14 8 268.355 280.338 7.108 12.425 o
-3 14 9 2833.510 2927.120 85.811 0.305 o
-3 14 10 299.240 303.722 9.892 10.526 o
-3 14 11 1610.240 1671.420 87.281 0.581 o
-3 14 12 487.025 477.557 12.587 5.748 o
-3 14 13 1.979 3.471 2.863 752.437 o
-3 14 14 2575.240 2719.030 65.187 0.384 o
-3 14 15 71.211 93.379 6.425 45.001 o
-3 14 16 0.399 0.062 2.702 1291.610 o
-3 14 17 69.208 56.355 6.193 53.881 o
-3 14 18 74.146 60.741 8.268 44.143 o
-3 14 19 371.516 315.560 13.181 8.224 o
-3 15 1 25.033 17.797 3.539 162.400 o
-3 15 2 13.570 15.673 3.538 232.169 o
-3 15 3 20.285 16.289 3.600 185.756 o
-3 15 4 200.151 210.283 7.600 17.014 o
-3 15 5 0.878 6.117 3.079 673.026 o
-3 15 6 390.627 405.418 11.292 7.477 o
-3 15 7 14.613 11.091 3.088 260.856 o
-3 15 8 19.147 25.275 4.572 150.229 o
-3 15 9 237.615 259.948 8.519 13.609 o
-3 15 10 70.911 81.775 6.967 45.628 o
-3 15 11 712.967 674.852 15.625 3.458 o
-3 15 12 419.912 420.319 19.335 5.961 o
-3 15 13 274.182 296.912 14.141 10.171 o
-3 15 14 709.162 645.754 18.049 3.442 o
-3 15 15 176.732 160.991 12.426 17.081 o
-3 15 16 64.029 46.101 3.060 71.097 o
-3 16 1 3.376 4.354 5.542 263.763 o
-3 16 2 35.977 33.315 6.042 88.309 o
-3 16 3 175.582 182.542 7.749 19.521 o
-3 16 4 17.009 11.458 3.104 236.919 o
-3 16 5 353.739 357.957 11.956 8.371 o
-3 16 6 76.136 61.519 6.131 49.903 o
-3 16 7 58.947 67.943 4.665 61.668 o
-3 16 8 24.329 28.638 2.965 153.893 o
-3 16 9 252.599 254.620 7.016 13.529 o
-3 16 10 4.084 3.066 1.611 949.334 o
-3 16 11 712.176 561.365 52.054 1.963 o
-3 16 12 85.996 64.119 3.502 51.513 o
-3 17 1 423.680 385.315 11.931 7.073 o
-3 17 2 23.096 26.783 4.285 140.653 o
-3 17 3 742.617 768.671 19.828 3.010 o
-3 17 4 282.038 289.334 13.638 10.215 o
-3 17 5 51.560 69.440 5.937 60.731 o
-3 17 6 174.055 152.965 12.401 17.490 o
-3 17 7 206.540 208.726 10.153 15.537 o
-3 17 8 46.414 31.712 3.389 96.498 o
-2 -16 4 363.323 274.291 23.217 6.664 o
-2 -16 5 288.245 196.398 14.059 11.127 o
-2 -16 6 109.962 92.796 11.811 26.053 o
-2 -16 9 75.833 53.143 4.402 57.065 o
-2 -15 1 630.337 690.249 16.065 3.789 o
-2 -15 2 2.803 5.264 3.377 529.651 o
-2 -15 3 0.538 0.659 2.058 1861.920 o
-2 -15 4 28.328 30.554 2.468 143.259 o
-2 -15 5 681.847 677.118 20.505 3.383 o
-2 -15 6 773.100 742.447 16.839 3.048 o
-2 -15 7 523.120 491.053 14.943 5.177 o
-2 -15 8 604.442 545.230 18.864 4.162 o
-2 -15 9 3.940 4.373 2.191 745.171 o
-2 -15 10 1359.900 1275.110 32.451 1.239 o
-2 -15 11 95.425 102.631 3.983 40.594 o
-2 -15 12 234.474 224.607 6.472 15.161 o
-2 -15 13 2676.310 2193.900 66.926 0.404 o
-2 -15 14 1.826 6.746 2.764 672.643 o
-2 -15 15 157.726 135.549 11.802 19.626 o
-2 -15 16 240.899 217.802 10.394 13.685 o
-2 -15 17 8.520 5.772 2.956 402.385 o
-2 -15 18 87.538 72.685 3.579 48.922 o
-2 -15 19 1.371 -1.369 1.978 1732.960 o
-2 -14 1 368.076 385.998 9.273 8.252 o
-2 -14 2 902.071 878.357 15.909 2.471 o
-2 -14 3 61.753 51.707 3.559 69.096 o
-2 -14 4 1410.670 1433.970 27.128 1.175 o
-2 -14 5 1.032 3.110 2.610 968.026 o
-2 -14 6 1387.650 1437.920 26.487 1.197 o
-2 -14 7 628.119 655.190 14.158 3.977 o
-2 -14 8 183.889 193.486 6.506 19.141 o
-2 -14 9 568.579 508.214 10.564 5.026 o
-2 -14 10 914.522 913.518 18.248 2.351 o
-2 -14 11 31.915 35.481 4.036 112.434 o
-2 -14 12 337.923 358.283 9.239 9.101 o
-2 -14 13 118.932 114.925 4.937 32.592 o
-2 -14 14 1361.540 1295.960 33.798 1.216 o
-2 -14 15 8.967 3.158 3.742 347.767 o
-2 -14 16 0.044 5.117 5.143 338.617 o
-2 -14 17 367.877 367.102 17.153 7.193 o
-2 -14 18 1064.220 1053.320 27.469 1.766 o
-2 -14 19 1222.590 1217.200 48.263 1.189 o
-2 -14 20 97.985 99.415 7.364 35.032 o
-2 -14 21 24.537 23.195 4.059 145.515 o
-2 -14 23 89.471 58.046 4.046 50.285 o
-2 -13 1 36.706 43.010 4.167 96.994 o
-2 -13 2 0.739 1.755 2.443 1230.320 o
-2 -13 3 766.005 776.589 13.825 3.097 o
-2 -13 4 1.669 5.164 2.648 775.373 o
-2 -13 5 266.319 327.842 7.358 11.650 o
-2 -13 6 124.797 109.622 4.882 32.045 o
-2 -13 7 229.095 263.711 7.588 14.172 o
-2 -13 8 481.773 463.134 9.723 6.094 o
-2 -13 9 128.591 133.623 5.575 28.753 o
-2 -13 10 735.769 860.157 14.892 3.027 o
-2 -13 11 357.073 360.787 7.586 8.903 o
-2 -13 12 1180.140 1163.880 17.203 1.649 o
-2 -13 13 1336.440 1374.030 21.179 1.311 o
-2 -13 14 914.824 942.708 15.571 2.364 o
-2 -13 15 108.418 121.487 4.481 34.515 o
-2 -13 16 645.334 671.964 15.583 3.781 o
-2 -13 17 1463.580 1562.220 25.406 1.095 o
-2 -13 18 1136.320 1271.310 21.167 1.597 o
-2 -13 19 526.472 600.540 11.572 4.940 o
-2 -13 20 785.663 883.543 17.764 2.749 o
-2 -13 21 28.035 30.156 3.017 138.888 o
-2 -13 22 9.808 13.335 2.352 344.115 o
-2 -13 23 753.451 788.738 23.873 2.798 o
-2 -13 24 354.126 323.031 18.583 7.412 o
-2 -13 25 497.156 391.463 10.854 6.234 o
-2 -12 1 143.958 122.654 5.141 27.668 o
-2 -12 2 368.050 330.649 10.559 8.580 o
-2 -12 3 2075.960 2038.090 47.418 0.599 o
-2 -12 4 22.035 16.435 4.258 162.384 o
-2 -12 5 773.393 739.781 14.767 3.112 o
-2 -12 6 684.359 721.682 13.521 3.555 o
-2 -12 7 67.269 61.858 3.696 61.428 o
-2 -12 8 724.925 717.773 10.739 3.462 o
-2 -12 9 72.028 112.323 4.174 46.261 o
-2 -12 10 935.436 994.796 18.013 2.215 o
-2 -12 11 1319.620 1472.950 20.067 1.287 o
-2 -12 12 631.590 670.258 11.001 4.040 o
-2 -12 13 432.299 428.715 7.620 7.067 o
-2 -12 14 36.703 23.473 2.915 125.819 o
-2 -12 15 414.704 422.272 8.507 7.291 o
-2 -12 16 1362.480 1397.050 17.624 1.298 o
-2 -12 17 35.098 48.065 2.605 106.173 o
-2 -12 18 412.767 444.617 8.447 7.164 o
-2 -12 19 822.602 871.165 13.444 2.754 o
-2 -12 20 82.450 84.799 3.699 48.336 o
-2 -12 21 61.393 66.525 3.316 64.747 o
-2 -12 22 737.909 749.125 17.216 3.152 o
-2 -12 23 365.996 348.571 8.102 8.785 o
-2 -12 24 110.559 131.218 4.626 32.948 o
-2 -12 25 65.569 77.349 3.768 57.742 o
-2 -12 26 649.672 690.524 18.117 3.602 o
-2 -12 27 172.042 186.426 8.314 19.306 o
-2 -12 28 0.472 2.075 1.695 2020.590 o
-2 -11 1 21.898 28.198 3.460 155.964 o
-2 -11 2 387.941 381.974 11.598 7.657 o
-2 -11 3 34.383 36.648 5.282 95.297 o
-2 -11 4 25.560 39.478 4.023 121.620 o
-2 -11 5 81.281 75.371 3.974 50.228 o
-2 -11 6 179.685 190.842 6.245 19.680 o
-2 -11 7 50.077 49.665 3.466 80.707 o
-2 -11 8 219.197 201.877 5.394 16.932 o
-2 -11 9 2058.980 1963.560 26.234 0.679 o
-2 -11 10 219.920 180.466 4.766 17.744 o
-2 -11 11 683.624 750.115 11.156 3.565 o
-2 -11 12 186.178 174.036 5.258 20.275 o
-2 -11 13 419.079 412.817 7.519 7.380 o
-2 -11 14 1936.870 1828.940 22.049 0.764 o
-2 -11 15 74.659 82.133 3.294 52.947 o
-2 -11 16 22.393 27.459 2.635 168.366 o
-2 -11 17 255.813 236.244 5.346 14.169 o
-2 -11 18 100.175 120.922 3.890 37.059 o
-2 -11 19 1571.870 1647.870 30.346 0.966 o
-2 -11 20 244.133 270.936 10.631 12.487 o
-2 -11 21 15.832 17.308 3.306 217.208 o
-2 -11 22 1127.970 1074.390 18.738 1.776 o
-2 -11 23 24.545 25.526 3.052 157.523 o
-2 -11 24 14.995 23.805 2.888 212.505 o
-2 -11 25 264.869 269.043 6.133 12.962 o
-2 -11 26 30.317 27.282 2.385 142.976 o
-2 -11 27 51.547 59.276 2.973 76.490 o
-2 -11 28 106.796 73.414 2.968 42.759 o
-2 -11 29 5.634 8.843 1.736 577.646 o
-2 -11 30 120.008 90.529 5.353 34.339 o
-2 -10 1 5950.690 5742.860 162.399 0.083 o
-2 -10 2 4159.280 3768.260 72.316 0.192 o
-2 -10 3 2756.990 2763.660 49.370 0.380 o
-2 -10 4 139.091 147.678 6.840 25.282 o
-2 -10 5 1040.580 1095.600 17.582 1.917 o
-2 -10 6 978.459 951.476 16.285 2.197 o
-2 -10 7 4575.060 4751.080 59.740 0.156 o
-2 -10 8 4642.070 4775.800 58.885 0.153 o
-2 -10 9 804.761 804.022 11.455 2.962 o
-2 -10 10 2915.570 2738.530 37.862 0.373 o
-2 -10 11 2.421 6.385 2.054 825.364 o
-2 -10 12 2079.040 2098.030 24.702 0.651 o
-2 -10 13 370.769 371.569 6.842 8.607 o
-2 -10 14 329.298 352.261 6.465 9.736 o
-2 -10 15 8091.440 7903.730 99.623 0.056 o
-2 -10 16 683.279 757.740 14.207 3.456 o
-2 -10 17 120.340 130.425 5.431 30.459 o
-2 -10 18 156.590 144.856 4.440 25.037 o
-2 -10 19 2606.380 2564.830 40.184 0.434 o
-2 -10 20 2412.340 2414.300 32.454 0.500 o
-2 -10 21 567.497 604.745 10.807 4.660 o
-2 -10 22 48.479 34.489 2.871 94.493 o
-2 -10 23 85.803 90.782 3.405 46.391 o
-2 -10 24 29.210 27.744 2.677 142.724 o
-2 -10 25 46.991 55.686 3.172 82.049 o
-2 -10 26 363.526 406.835 8.210 8.271 o
-2 -10 27 0.498 4.537 2.326 1085.050 o
-2 -10 28 407.613 408.563 9.463 7.406 o
-2 -10 29 224.691 233.365 6.406 15.451 o
-2 -10 30 531.705 559.453 10.981 5.094 o
-2 -10 31 477.572 456.108 11.460 6.045 o
-2 -9 1 3515.260 3392.630 83.073 0.234 o
-2 -9 2 833.305 840.014 12.421 2.789 o
-2 -9 3 3579.660 3603.050 59.421 0.240 o
-2 -9 4 10.828 18.182 2.329 294.370 o
-2 -9 5 225.778 250.968 9.807 13.845 o
-2 -9 6 4927.480 4537.030 63.294 0.145 o
-2 -9 7 192.210 183.787 5.106 19.472 o
-2 -9 8 1949.250 1942.770 20.464 0.738 o
-2 -9 9 5.636 9.549 1.796 554.558 o
-2 -9 10 25.046 21.997 1.974 177.622 o
-2 -9 11 17.033 17.890 1.977 241.699 o
-2 -9 12 3629.360 3567.890 37.170 0.250 o
-2 -9 13 5219.280 5196.030 50.858 0.128 o
-2 -9 14 920.235 830.626 11.804 2.556 o
-2 -9 15 13.634 11.995 2.275 300.229 o
-2 -9 16 168.156 232.554 7.710 18.287 o
-2 -9 17 1402.090 1422.770 18.921 1.241 o
-2 -9 18 1862.280 1892.490 22.026 0.783 o
-2 -9 19 748.561 778.365 11.685 3.213 o
-2 -9 20 360.650 371.485 7.760 8.706 o
-2 -9 21 3399.490 3438.410 35.586 0.277 o
-2 -9 22 322.581 319.935 5.835 10.381 o
-2 -9 23 628.985 692.401 9.438 4.043 o
-2 -9 24 250.912 276.990 7.441 13.049 o
-2 -9 25 59.159 63.046 2.980 68.509 o
-2 -9 26 1456.570 1575.160 19.301 1.129 o
-2 -9 27 371.504 438.648 8.320 7.850 o
-2 -9 28 38.104 52.216 3.002 95.944 o
-2 -9 29 67.448 72.855 3.331 58.979 o
-2 -9 30 353.941 416.518 8.538 8.320 o
-2 -9 31 79.559 67.809 3.399 53.823 o
-2 -9 32 777.858 727.333 133.386 0.491 o
-2 -9 33 1.622 0.016 2.004 1602.800 o
-2 -8 1 292.593 318.027 14.093 9.527 o
-2 -8 2 790.650 989.808 26.281 2.358 o
-2 -8 3 331.378 382.880 14.071 8.175 o
-2 -8 4 4258.440 4165.390 59.061 0.182 o
-2 -8 5 75.223 65.422 3.284 56.848 o
-2 -8 6 1785.630 1679.830 25.581 0.860 o
-2 -8 7 1711.710 1668.810 21.272 0.918 o
-2 -8 8 603.272 621.742 10.191 4.387 o
-2 -8 9 72.864 92.531 2.814 52.172 o
-2 -8 10 463.581 511.336 6.835 6.206 o
-2 -8 11 1179.180 1089.280 14.591 1.728 o
-2 -8 12 147.504 80.384 2.894 32.096 o
-2 -8 13 268.993 238.396 5.671 13.496 o
-2 -8 14 1192.610 1075.020 15.823 1.708 o
-2 -8 15 634.927 698.569 12.958 3.873 o
-2 -8 16 11.547 8.805 2.458 347.331 o
-2 -8 17 549.230 544.928 11.260 4.996 o
-2 -8 18 524.849 550.449 9.816 5.252 o
-2 -8 19 11842.900 11884.100 126.979 0.027 o
-2 -8 20 716.707 706.783 11.634 3.499 o
-2 -8 21 144.936 172.984 5.106 24.378 o
-2 -8 22 172.505 210.685 5.584 19.764 o
-2 -8 23 101.657 115.246 4.498 36.706 o
-2 -8 24 3526.040 3614.470 43.349 0.254 o
-2 -8 25 876.683 897.322 14.564 2.538 o
-2 -8 26 32.145 32.245 3.084 124.673 o
-2 -8 27 713.263 816.209 15.874 3.162 o
-2 -8 28 68.087 54.843 3.153 64.601 o
-2 -8 29 30.107 29.885 2.520 138.426 o
-2 -8 30 16.782 15.252 2.716 235.553 o
-2 -8 31 268.624 282.782 8.145 12.141 o
-2 -8 32 1484.780 1681.090 31.704 1.002 o
-2 -8 33 188.289 194.016 7.408 18.379 o
-2 -8 34 14.041 8.007 2.577 308.411 o
-2 -7 1 998.373 932.276 63.749 1.203 o
-2 -7 2 1031.000 1026.510 72.355 1.018 o
-2 -7 3 251.328 323.442 38.524 4.514 o
-2 -7 4 10.077 10.967 5.261 202.580 o
-2 -7 5 4.041 19.568 7.058 146.037 o
-2 -7 6 23.853 29.507 13.653 41.944 o
-2 -7 7 1783.990 1988.740 74.434 0.572 o
-2 -7 8 263.852 201.604 16.253 10.923 o
-2 -7 9 0.626 8.934 5.977 237.291 o
-2 -7 10 366.228 345.223 31.068 4.967 o
-2 -7 11 2.414 7.074 4.431 361.616 o
-2 -7 12 127.249 70.026 3.641 36.918 o
-2 -7 13 515.317 484.682 9.272 5.669 o
-2 -7 14 0.313 3.523 2.011 1450.250 o
-2 -7 15 1628.960 1576.180 21.489 0.996 o
-2 -7 16 301.547 311.725 7.359 10.842 o
-2 -7 17 84.786 73.024 3.550 50.031 o
-2 -7 18 630.727 594.994 10.866 4.272 o
-2 -7 19 160.710 152.675 5.116 23.750 o
-2 -7 20 1757.310 1859.080 24.525 0.832 o
-2 -7 21 704.805 714.454 11.671 3.535 o
-2 -7 22 905.348 996.703 15.807 2.318 o
-2 -7 23 274.041 268.685 7.348 12.378 o
-2 -7 24 122.067 109.225 8.481 28.266 o
-2 -7 25 16.416 31.260 4.140 158.039 o
-2 -7 26 168.353 200.958 8.855 18.722 o
-2 -7 27 4.588 8.205 3.699 388.034 o
-2 -7 28 1607.950 1767.920 34.650 0.888 o
-2 -7 29 4.902 8.540 3.010 455.626 o
-2 -7 30 66.113 70.815 4.041 58.543 o
-2 -7 31 0.480 1.854 2.197 1489.630 o
-2 -7 32 56.270 66.689 2.986 69.306 o
-2 -7 33 213.635 257.959 7.032 15.196 o
-2 -7 34 555.141 599.925 16.308 4.457 o
-2 -7 35 23.878 29.129 3.451 147.678 o
-2 -6 1 2408.800 2136.360 63.296 0.463 o
-2 -6 2 2630.450 2357.910 98.525 0.331 o
-2 -6 3 1.136 2.479 4.750 393.473 o
-2 -6 4 2749.690 2829.010 97.665 0.298 o
-2 -6 5 3447.020 3405.670 92.013 0.230 o
-2 -6 6 5631.890 5313.410 245.382 0.070 o
-2 -6 7 2488.170 2400.640 80.054 0.387 o
-2 -6 8 10045.900 10521.500 249.393 0.030 o
-2 -6 9 346.842 437.285 33.566 4.465 o
-2 -6 10 4273.680 5036.860 184.458 0.109 o
-2 -6 11 1631.830 1735.310 78.787 0.617 o
-2 -6 12 1321.700 1400.430 67.438 0.860 o
-2 -6 13 2797.070 2937.980 117.607 0.258 o
-2 -6 14 129.981 130.423 18.316 15.510 o
-2 -6 15 576.306 638.623 10.432 4.499 o
-2 -6 16 9536.290 9577.050 109.609 0.040 o
-2 -6 17 171.633 152.893 5.077 22.627 o
-2 -6 18 1108.940 1093.090 16.987 1.811 o
-2 -6 19 436.177 446.867 10.850 6.625 o
-2 -6 20 229.541 213.673 5.845 15.877 o
-2 -6 21 4406.010 4472.400 67.527 0.166 o
-2 -6 22 1519.340 1544.710 26.723 1.054 o
-2 -6 23 270.242 270.796 10.081 11.790 o
-2 -6 24 734.275 793.879 14.675 3.160 o
-2 -6 25 378.321 448.026 9.115 7.586 o
-2 -6 26 104.015 130.978 7.187 31.136 o
-2 -6 27 32.705 31.233 4.110 114.283 o
-2 -6 28 435.330 415.973 12.014 6.712 o
-2 -6 29 8.865 4.254 2.741 433.713 o
-2 -6 30 66.984 68.403 4.256 58.136 o
-2 -6 31 39.830 41.372 3.380 99.153 o
-2 -6 32 55.642 62.849 3.670 69.135 o
-2 -6 33 99.332 93.902 5.838 37.973 o
-2 -6 34 8.249 12.786 3.160 325.250 o
-2 -6 35 276.056 323.689 14.211 9.798 o
-2 -5 1 11974.500 12688.500 292.996 0.022 o
-2 -5 2 16490.900 16141.100 368.011 0.012 o
-2 -5 3 14172.900 14040.200 263.042 0.018 o
-2 -5 4 2467.480 2403.840 65.923 0.423 o
-2 -5 5 4440.450 4313.980 108.791 0.150 o
-2 -5 6 755.901 833.735 25.071 2.682 o
-2 -5 7 7829.730 7463.820 198.502 0.051 o
-2 -5 8 3663.850 3459.440 223.624 0.115 o
-2 -5 9 10060.800 11366.200 376.237 0.024 o
-2 -5 10 24.576 9.526 6.866 112.908 o
-2 -5 11 575.548 636.787 37.407 2.876 o
-2 -5 12 6259.930 7084.750 243.183 0.058 o
-2 -5 13 0.912 -1.360 8.085 153.511 o
-2 -5 14 2162.400 2076.970 85.857 0.444 o
-2 -5 15 453.885 429.794 29.119 4.447 o
-2 -5 16 14.710 29.165 4.029 171.503 o
-2 -5 17 5369.070 5132.770 53.330 0.124 o
-2 -5 18 2924.970 2819.980 32.302 0.371 o
-2 -5 19 1327.360 1137.240 20.443 1.452 o
-2 -5 20 2832.700 2898.590 37.900 0.373 o
-2 -5 21 693.566 718.756 12.100 3.564 o
-2 -5 22 2017.990 2024.230 33.926 0.662 o
-2 -5 23 96.384 107.420 4.984 38.327 o
-2 -5 24 0.141 2.963 2.439 1232.380 o
-2 -5 25 323.963 332.583 12.518 9.075 o
-2 -5 26 4.338 8.616 3.167 451.662 o
-2 -5 27 365.210 390.343 8.913 8.308 o
-2 -5 28 0.701 1.779 1.611 2085.480 o
-2 -5 29 614.885 653.972 11.708 4.157 o
-2 -5 30 625.859 682.146 15.646 3.851 o
-2 -5 31 94.641 105.711 4.693 39.423 o
-2 -5 32 10.880 11.115 2.321 346.486 o
-2 -5 33 0.252 0.276 2.293 1757.610 o
-2 -5 34 419.818 483.891 10.538 6.627 o
-2 -5 35 61.406 43.689 4.017 70.847 o
-2 -5 36 148.410 119.643 17.906 15.284 o
-2 -4 1 3303.390 3654.570 74.898 0.247 o
-2 -4 2 9260.540 9948.240 191.226 0.037 o
-2 -4 3 1078.250 1223.320 26.443 1.641 o
-2 -4 4 5382.590 5783.560 137.244 0.098 o
-2 -4 5 62.425 141.834 15.744 22.223 o
-2 -4 6 506.550 461.539 15.766 5.371 o
-2 -4 7 14354.700 15146.500 332.728 0.015 o
-2 -4 8 14138.600 14055.200 455.179 0.014 o
-2 -4 9 17121.800 17939.000 575.034 0.009 o
-2 -4 10 4446.300 4514.300 158.903 0.123 o
-2 -4 11 4563.590 5006.300 173.930 0.108 o
-2 -4 12 2319.350 2262.560 88.000 0.400 o
-2 -4 13 13794.100 13192.500 703.661 0.011 o
-2 -4 14 1041.280 1012.540 29.882 1.788 o
-2 -4 15 1258.830 1090.240 30.631 1.448 o
-2 -4 16 1140.640 1173.630 32.504 1.508 o
-2 -4 17 3461.130 3274.990 107.279 0.218 o
-2 -4 18 54.597 40.794 2.645 83.940 o
-2 -4 19 1189.990 1156.180 15.110 1.659 o
-2 -4 20 5719.040 5268.240 61.810 0.112 o
-2 -4 21 87.212 65.562 3.156 51.253 o
-2 -4 22 758.247 707.013 11.925 3.312 o
-2 -4 23 3900.260 3655.100 50.545 0.221 o
-2 -4 24 789.569 747.167 12.591 3.094 o
-2 -4 25 3935.890 4013.490 77.423 0.194 o
-2 -4 26 6.148 4.150 2.434 570.696 o
-2 -4 27 0.700 2.774 2.047 1416.850 o
-2 -4 28 1893.500 1980.380 42.112 0.685 o
-2 -4 29 1.172 1.309 2.860 944.972 o
-2 -4 30 114.492 113.262 4.922 33.640 o
-2 -4 31 0.112 2.024 2.346 1434.710 o
-2 -4 32 7.838 6.584 3.556 353.743 o
-2 -4 33 30.112 41.996 3.423 115.354 o
-2 -4 34 208.113 258.322 7.117 15.436 o
-2 -4 35 52.686 72.242 3.396 68.707 o
-2 -4 36 27.221 28.568 4.140 129.157 o
-2 -3 1 128.772 168.029 6.778 25.352 o
-2 -3 2 861.533 1075.340 25.826 2.127 o
-2 -3 3 13101.500 11815.400 933.099 0.008 o
-2 -3 4 3137.840 2959.580 88.747 0.272 o
-2 -3 5 49.844 105.512 6.321 51.109 o
-2 -3 6 2969.740 2715.290 48.475 0.355 o
-2 -3 7 17029.100 16142.800 375.236 0.012 o
-2 -3 8 4655.910 4426.290 107.582 0.141 o
-2 -3 9 6338.080 6218.450 272.603 0.056 o
-2 -3 10 1965.330 2043.290 77.762 0.511 o
-2 -3 11 13518.000 13984.200 448.500 0.015 o
-2 -3 12 159.461 120.377 12.918 19.032 o
-2 -3 13 18286.400 16768.400 403.663 0.011 o
-2 -3 14 9662.490 8982.840 228.527 0.035 o
-2 -3 15 1914.440 1694.880 43.536 0.724 o
-2 -3 16 2581.680 2599.190 114.345 0.293 o
-2 -3 17 161.111 204.361 11.496 17.372 o
-2 -3 18 998.705 994.184 37.256 1.713 o
-2 -3 19 3051.820 2918.140 44.500 0.336 o
-2 -3 20 431.537 465.353 7.936 6.808 o
-2 -3 21 1051.860 888.180 12.262 2.160 o
-2 -3 22 1662.500 1577.250 20.849 0.977 o
-2 -3 23 5133.120 5033.040 67.834 0.130 o
-2 -3 24 2040.650 2027.520 29.962 0.664 o
-2 -3 25 3844.190 3646.430 57.152 0.222 o
-2 -3 26 2174.930 2088.160 39.275 0.588 o
-2 -3 27 240.902 237.778 6.032 14.654 o
-2 -3 28 345.796 317.007 6.966 9.700 o
-2 -3 29 2.843 10.203 2.451 581.367 o
-2 -3 30 699.028 733.668 13.174 3.473 o
-2 -3 31 372.309 346.634 8.567 8.624 o
-2 -3 32 8.204 15.925 3.514 283.564 o
-2 -3 33 1.597 2.173 1.716 1494.850 o
-2 -3 34 340.264 387.713 9.361 8.741 o
-2 -3 35 218.017 225.050 5.864 16.190 o
-2 -3 36 16.970 14.249 2.630 240.715 o
-2 -2 1 26196.500 26001.500 1007.580 0.004 o
-2 -2 2 10208.400 10371.100 224.540 0.031 o
-2 -2 3 11182.000 10924.300 454.334 0.019 o
-2 -2 4 4412.730 4470.350 103.700 0.150 o
-2 -2 5 21.932 17.638 2.962 188.035 o
-2 -2 6 1009.990 1083.310 25.255 1.865 o
-2 -2 7 2544.420 2422.720 61.039 0.419 o
-2 -2 8 2399.600 2231.340 56.911 0.472 o
-2 -2 9 4389.790 4220.060 100.950 0.157 o
-2 -2 10 273.795 329.508 18.795 8.547 o
-2 -2 11 1750.470 1442.060 62.301 0.728 o
-2 -2 12 6300.650 6162.570 203.391 0.068 o
-2 -2 13 1384.120 1322.080 35.870 1.167 o
-2 -2 14 1992.710 2279.220 75.406 0.492 o
-2 -2 15 20.731 70.098 6.406 81.647 o
-2 -2 16 766.376 723.183 28.037 2.696 o
-2 -2 17 187.931 212.935 11.982 15.403 o
-2 -2 18 559.617 579.023 24.383 3.928 o
-2 -2 19 759.377 885.683 23.939 2.639 o
-2 -2 20 907.383 824.122 15.069 2.545 o
-2 -2 21 319.759 261.448 5.930 11.270 o
-2 -2 22 1031.690 1124.290 16.631 1.919 o
-2 -2 23 465.079 457.116 9.386 6.340 o
-2 -2 24 376.787 357.664 8.920 8.393 o
-2 -2 25 1262.330 1169.220 23.024 1.485 o
-2 -2 26 10.983 5.950 2.923 352.726 o
-2 -2 27 3080.690 3109.220 47.860 0.318 o
-2 -2 28 0.166 1.313 2.468 1405.350 o
-2 -2 29 434.748 472.542 9.470 6.604 o
-2 -2 30 801.988 866.595 16.231 2.763 o
-2 -2 31 75.397 75.561 4.768 50.957 o
-2 -2 32 181.031 191.865 6.926 19.209 o
-2 -2 33 13.384 12.937 2.899 271.875 o
-2 -2 34 77.565 88.869 3.590 49.670 o
-2 -2 35 39.443 46.751 4.394 89.191 o
-2 -2 36 391.176 387.259 39.979 3.634 o
-2 -1 1 830.295 820.224 22.938 2.567 o
-2 -1 2 29.004 39.108 3.024 124.544 o
-2 -1 3 260.611 225.144 11.005 12.587 o
-2 -1 4 50870.100 47512.900 1264.070 0.001 o
-2 -1 5 10708.000 9794.760 179.418 0.032 o
-2 -1 6 9647.990 9495.390 214.436 0.035 o
-2 -1 7 1436.920 1113.080 30.401 1.262 o
-2 -1 8 19285.200 19019.900 423.183 0.009 o
-2 -1 9 60311.300 59179.200 1302.000 0.001 o
-2 -1 10 12080.700 11281.900 253.706 0.024 o
-2 -1 11 560.834 520.407 17.192 4.621 o
-2 -1 12 675.860 624.105 27.018 3.181 o
-2 -1 13 711.389 728.706 26.923 2.895 o
-2 -1 14 31.564 44.120 5.225 94.556 o
-2 -1 15 34939.200 33261.600 1035.380 0.003 o
-2 -1 16 1205.030 1272.880 45.302 1.221 o
-2 -1 17 2985.420 3075.390 94.303 0.273 o
-2 -1 18 1434.300 1407.130 35.262 1.103 o
-2 -1 19 13.491 15.020 7.640 114.597 o
-2 -1 20 1735.680 1641.560 53.018 0.754 o
-2 -1 21 1738.580 1582.140 28.754 0.897 o
-2 -1 22 66.626 56.866 3.621 63.625 o
-2 -1 23 1677.370 1601.640 30.810 0.916 o
-2 -1 24 316.835 311.786 8.981 10.152 o
-2 -1 25 6.192 10.603 3.381 362.184 o
-2 -1 26 423.349 418.548 11.021 6.954 o
-2 -1 27 1.240 3.968 2.950 764.070 o
-2 -1 28 332.668 333.440 7.155 9.791 o
-2 -1 29 173.573 168.810 4.831 21.791 o
-2 -1 30 9.795 11.914 3.035 316.463 o
-2 -1 31 43.785 41.988 4.442 86.518 o
-2 -1 32 36.868 33.141 4.247 103.704 o
-2 -1 33 25.806 25.770 3.307 148.939 o
-2 -1 34 52.629 56.047 3.456 75.231 o
-2 -1 35 2.355 1.228 3.100 734.774 o
-2 -1 36 312.517 292.074 12.965 9.649 o
-2 0 1 14922.300 14133.800 313.868 0.016 o
-2 0 2 10212.400 9239.140 204.584 0.034 o
-2 0 3 4064.500 3836.020 148.441 0.148 o
-2 0 4 17285.600 15588.700 378.666 0.012 o
-2 0 5 27847.300 26911.900 595.146 0.005 o
-2 0 6 16326.100 14549.200 365.750 0.013 o
-2 0 7 18116.800 16239.900 510.267 0.010 o
-2 0 8 32762.400 29895.200 932.823 0.003 o
-2 0 9 14882.500 13861.400 435.791 0.014 o
-2 0 10 7989.610 7837.640 179.268 0.051 o
-2 0 11 164.432 207.614 9.676 18.254 o
-2 0 12 446.002 450.568 41.127 3.247 o
-2 0 13 162.956 313.851 23.545 9.065 o
-2 0 14 3593.910 3042.750 74.288 0.248 o
-2 0 15 720.283 487.344 16.738 3.815 o
-2 0 16 495.629 396.417 38.028 3.443 o
-2 0 17 921.187 977.112 30.381 2.001 o
-2 0 18 437.085 539.928 19.293 5.281 o
-2 0 19 204.706 233.037 13.257 13.585 o
-2 0 20 252.690 283.706 15.089 10.569 o
-2 0 21 3240.300 2972.550 50.818 0.305 o
-2 0 22 192.229 164.008 6.545 19.603 o
-2 0 23 2.579 10.914 3.204 465.318 o
-2 0 24 135.608 136.611 6.141 27.033 o
-2 0 25 90.396 78.771 4.464 45.186 o
-2 0 26 2264.050 2234.220 39.947 0.543 o
-2 0 27 632.070 607.580 16.973 3.949 o
-2 0 28 927.645 939.634 23.399 2.185 o
-2 0 29 940.495 957.493 27.919 2.041 o
-2 0 30 6.284 5.992 3.793 366.160 o
-2 0 31 443.766 421.855 12.400 6.532 o
-2 0 32 85.662 92.071 7.498 38.461 o
-2 0 33 0.345 -3.575 3.098 1013.610 o
-2 0 34 422.726 462.644 10.317 6.744 o
-2 0 35 9.372 8.335 2.338 404.249 o
-2 0 36 546.965 473.951 22.410 4.443 o
-2 1 1 65586.100 67064.500 1467.800 0.001 o
-2 1 2 353.174 408.822 16.163 7.278 o
-2 1 3 11670.100 13080.600 409.130 0.019 o
-2 1 4 622.916 675.857 27.911 3.228 o
-2 1 5 590.772 638.923 26.643 3.499 o
-2 1 6 7417.910 7457.130 238.694 0.049 o
-2 1 7 690.710 772.679 31.134 2.704 o
-2 1 8 3512.980 2724.790 91.751 0.249 o
-2 1 9 4726.380 3899.830 127.464 0.138 o
-2 1 10 1412.050 1301.090 45.909 1.056 o
-2 1 11 2430.500 1966.080 49.929 0.511 o
-2 1 12 2694.370 2211.900 230.676 0.138 o
-2 1 13 7140.570 6148.880 121.561 0.072 o
-2 1 14 284.424 214.465 7.356 12.984 o
-2 1 15 817.724 793.354 22.126 2.662 o
-2 1 16 9552.980 8924.220 260.121 0.034 o
-2 1 17 341.487 277.385 9.394 9.896 o
-2 1 18 115.009 126.749 7.039 29.853 o
-2 1 19 4020.220 3777.580 79.438 0.195 o
-2 1 20 612.295 601.822 13.591 4.246 o
-2 1 21 2982.130 2903.670 38.736 0.351 o
-2 1 22 15899.300 15611.800 255.697 0.014 o
-2 1 23 208.083 187.718 5.844 17.928 o
-2 1 24 2707.930 2611.240 37.625 0.416 o
-2 1 25 782.175 753.313 16.902 2.995 o
-2 1 26 18.780 27.392 3.519 168.715 o
-2 1 27 2443.000 2547.840 49.068 0.451 o
-2 1 28 708.692 702.802 21.269 3.194 o
-2 1 29 4.764 4.802 3.174 498.556 o
-2 1 30 2633.080 2623.220 52.357 0.405 o
-2 1 31 817.087 866.260 17.824 2.679 o
-2 1 32 359.652 383.901 9.569 8.384 o
-2 1 33 17.826 12.350 2.845 234.985 o
-2 1 34 40.184 27.142 2.727 115.533 o
-2 1 35 1334.760 1409.830 30.038 1.225 o
-2 1 36 0.456 2.145 1.839 1827.520 o
-2 2 1 4025.890 4135.100 135.114 0.152 o
-2 2 2 2413.000 2623.890 88.010 0.364 o
-2 2 4 4230.360 4030.920 92.505 0.171 o
-2 2 5 827.150 929.377 44.594 1.807 o
-2 2 6 2102.350 1901.580 70.202 0.527 o
-2 2 7 146.370 251.008 8.088 18.958 o
-2 2 8 5292.980 4805.310 90.675 0.123 o
-2 2 9 19117.500 17701.600 319.894 0.010 o
-2 2 10 1021.200 1010.290 27.025 1.874 o
-2 2 11 197.687 219.836 10.752 15.408 o
-2 2 12 323.039 446.202 9.369 8.511 o
-2 2 13 258.632 178.486 7.478 14.800 o
-2 2 14 91.999 53.353 4.604 49.047 o
-2 2 15 479.810 400.558 11.277 6.342 o
-2 2 16 331.376 266.609 8.067 10.522 o
-2 2 17 4504.260 4192.970 71.818 0.166 o
-2 2 18 379.118 418.414 19.833 6.314 o
-2 2 19 16.769 12.791 3.245 228.793 o
-2 2 20 1.032 2.501 2.413 1120.030 o
-2 2 21 1493.270 1506.500 24.272 1.101 o
-2 2 22 361.429 411.601 9.629 8.101 o
-2 2 23 691.030 681.957 12.459 3.651 o
-2 2 24 30.682 45.136 4.974 97.383 o
-2 2 25 1249.850 1227.350 20.123 1.492 o
-2 2 26 326.232 346.543 9.844 9.378 o
-2 2 27 445.671 458.020 9.899 6.524 o
-2 2 28 1483.440 1508.500 50.214 0.916 o
-2 2 29 274.676 249.247 11.000 11.727 o
-2 2 30 774.240 793.923 23.658 2.736 o
-2 2 31 22.981 19.206 4.391 151.133 o
-2 2 32 1.559 1.557 2.788 916.253 o
-2 2 33 719.744 745.957 20.644 3.100 o
-2 2 34 12.394 15.510 3.120 259.620 o
-2 2 35 3.454 4.557 2.485 704.208 o
-2 3 1 635.937 547.616 17.621 4.054 o
-2 3 2 593.472 811.012 65.916 1.489 o
-2 3 3 1160.070 1236.890 37.208 1.387 o
-2 3 4 2378.970 2248.720 80.065 0.414 o
-2 3 5 4026.940 3525.140 121.625 0.172 o
-2 3 6 750.050 745.064 81.230 1.068 o
-2 3 7 578.048 586.682 24.217 3.832 o
-2 3 8 2376.030 2303.620 58.313 0.466 o
-2 3 9 7.292 6.837 2.871 428.030 o
-2 3 10 852.423 1094.340 26.191 2.118 o
-2 3 11 33.557 49.220 4.172 97.015 o
-2 3 12 187.004 177.000 6.733 19.414 o
-2 3 13 2103.750 2057.700 51.618 0.575 o
-2 3 14 298.702 316.345 9.225 10.512 o
-2 3 15 175.490 204.573 7.261 18.980 o
-2 3 16 3.402 7.162 2.732 579.746 o
-2 3 17 39.522 41.746 3.888 95.898 o
-2 3 18 213.291 279.728 10.051 13.678 o
-2 3 19 941.574 994.880 15.684 2.239 o
-2 3 20 749.015 779.395 13.202 3.172 o
-2 3 21 157.384 129.026 7.152 24.002 o
-2 3 22 71.329 82.576 4.063 52.845 o
-2 3 23 779.491 842.616 15.371 2.894 o
-2 3 24 1576.600 1610.220 27.664 0.989 o
-2 3 25 3.282 -0.359 2.823 803.197 o
-2 3 26 1519.150 1494.280 23.629 1.090 o
-2 3 27 153.607 132.288 5.118 25.759 o
-2 3 28 122.439 104.321 4.520 33.360 o
-2 3 29 106.189 97.545 5.895 35.834 o
-2 3 30 2.217 9.577 3.389 471.481 o
-2 3 31 146.716 154.389 5.688 24.871 o
-2 3 32 36.832 36.627 4.014 102.921 o
-2 3 33 0.562 0.804 2.173 1671.530 o
-2 3 34 339.343 298.304 29.546 5.564 o
-2 3 35 80.940 69.097 3.647 52.393 o
-2 4 1 1792.640 1609.010 92.905 0.520 o
-2 4 2 34.537 32.977 3.983 110.357 o
-2 4 3 147.098 58.287 4.998 32.559 o
-2 4 4 2092.030 2242.920 93.915 0.416 o
-2 4 5 6398.630 6833.310 181.906 0.068 o
-2 4 6 1466.930 1086.320 47.848 1.070 o
-2 4 7 7154.020 7180.050 240.298 0.052 o
-2 4 8 16308.300 15760.200 357.548 0.013 o
-2 4 9 2707.880 2960.020 75.615 0.333 o
-2 4 10 695.510 642.201 23.656 3.248 o
-2 4 11 4990.700 4600.640 89.821 0.135 o
-2 4 12 4577.570 4669.040 64.250 0.156 o
-2 4 13 903.693 774.603 14.951 2.626 o
-2 4 14 2251.980 2553.410 52.006 0.481 o
-2 4 15 44.482 44.298 3.815 88.178 o
-2 4 16 155.374 81.783 4.930 29.176 o
-2 4 17 318.895 276.134 7.849 10.769 o
-2 4 18 118.781 135.964 5.020 30.646 o
-2 4 19 6.378 12.220 4.831 245.823 o
-2 4 20 394.575 440.888 10.238 7.280 o
-2 4 21 116.410 131.306 5.518 30.966 o
-2 4 22 5211.820 5013.380 70.434 0.127 o
-2 4 23 0.333 4.727 3.193 725.204 o
-2 4 24 1278.280 1390.100 24.592 1.334 o
-2 4 25 543.801 529.748 12.187 5.046 o
-2 4 26 206.101 226.978 7.274 16.321 o
-2 4 27 2079.180 2123.460 31.323 0.632 o
-2 4 28 12.917 14.124 3.191 258.383 o
-2 4 29 193.058 230.087 8.484 16.463 o
-2 4 30 504.210 521.718 17.278 5.015 o
-2 4 31 149.678 148.005 11.197 20.304 o
-2 4 32 3.213 4.940 2.522 698.901 o
-2 4 33 13.997 11.682 2.063 305.729 o
-2 4 34 80.192 51.519 4.277 55.559 o
-2 5 1 5167.570 4884.190 280.330 0.067 o
-2 5 2 30451.000 28485.700 811.235 0.004 o
-2 5 3 474.675 477.017 19.012 5.260 o
-2 5 4 2787.590 2476.710 81.650 0.341 o
-2 5 5 4991.940 4958.310 153.915 0.108 o
-2 5 6 6893.900 6257.680 212.263 0.061 o
-2 5 7 2260.770 2236.610 88.074 0.410 o
-2 5 8 10100.000 9056.530 308.181 0.029 o
-2 5 9 41340.900 40063.900 1523.750 0.002 o
-2 5 10 311.060 257.602 9.631 10.887 o
-2 5 11 2512.330 2449.210 48.657 0.448 o
-2 5 12 9176.720 9132.610 147.485 0.042 o
-2 5 13 2256.570 2235.950 40.868 0.543 o
-2 5 14 6855.830 6580.150 136.631 0.071 o
-2 5 15 4940.100 4767.650 81.561 0.136 o
-2 5 16 35.938 36.234 3.889 105.790 o
-2 5 17 5276.390 5077.450 83.437 0.121 o
-2 5 18 131.106 122.009 6.196 28.661 o
-2 5 19 11.275 17.176 2.588 284.648 o
-2 5 20 133.398 190.263 5.988 24.140 o
-2 5 21 159.093 189.908 6.442 21.325 o
-2 5 22 4643.760 4751.900 71.294 0.149 o
-2 5 23 4932.890 5052.280 75.675 0.134 o
-2 5 24 1767.820 1810.140 30.422 0.818 o
-2 5 25 2793.850 2824.120 44.487 0.377 o
-2 5 26 1548.260 1633.180 27.597 1.000 o
-2 5 27 136.843 158.752 6.371 25.276 o
-2 5 28 978.406 1050.310 18.822 2.056 o
-2 5 29 382.348 409.911 15.251 7.022 o
-2 5 30 1123.300 1161.010 44.709 1.346 o
-2 5 31 575.243 616.882 26.085 3.647 o
-2 5 32 389.587 347.785 8.990 8.244 o
-2 5 33 182.653 143.122 24.494 9.855 o
-2 5 34 1.398 0.299 1.956 1684.850 o
-2 6 1 147.604 181.900 9.181 20.802 o
-2 6 2 1295.990 1781.420 50.223 0.943 o
-2 6 3 750.883 565.474 18.546 3.414 o
-2 6 4 32.796 34.643 5.635 95.466 o
-2 6 5 9447.270 9382.610 225.567 0.036 o
-2 6 6 221.380 169.207 10.634 15.547 o
-2 6 7 997.670 872.944 68.947 1.130 o
-2 6 8 1218.440 1063.790 53.303 1.178 o
-2 6 9 492.086 410.479 45.004 2.873 o
-2 6 10 13022.900 12149.000 300.664 0.020 o
-2 6 11 56.897 60.063 9.637 45.047 o
-2 6 12 159.691 232.954 8.122 18.636 o
-2 6 13 3047.150 3084.900 72.068 0.296 o
-2 6 14 1605.630 1557.230 34.662 0.948 o
-2 6 15 11486.500 10988.100 176.448 0.028 o
-2 6 16 235.927 231.673 7.615 14.575 o
-2 6 17 2090.080 1905.040 43.072 0.629 o
-2 6 18 4741.150 4844.260 73.397 0.144 o
-2 6 19 329.230 322.819 9.045 9.711 o
-2 6 20 97.478 87.600 5.928 39.099 o
-2 6 21 271.918 285.870 7.777 12.062 o
-2 6 22 3.616 12.498 3.005 436.345 o
-2 6 23 1707.200 1627.780 26.131 0.914 o
-2 6 24 2486.930 2604.370 45.842 0.443 o
-2 6 25 308.779 324.816 9.460 10.102 o
-2 6 26 1.631 6.736 3.602 505.378 o
-2 6 27 26.604 26.670 4.752 124.400 o
-2 6 28 2.987 7.025 3.814 426.106 o
-2 6 29 169.268 183.937 9.058 19.133 o
-2 6 30 2.943 8.252 5.652 242.221 o
-2 6 31 328.273 361.242 12.038 8.799 o
-2 6 32 5.834 7.438 2.424 515.801 o
-2 7 1 883.580 720.706 41.577 1.967 o
-2 7 2 338.983 330.133 16.401 8.028 o
-2 7 3 16542.400 15461.400 597.674 0.010 o
-2 7 4 2421.050 2044.290 79.026 0.426 o
-2 7 5 341.856 391.330 16.604 7.483 o
-2 7 6 1165.360 1299.270 52.228 1.148 o
-2 7 7 463.059 479.059 28.632 4.314 o
-2 7 8 80.460 182.225 15.676 19.439 o
-2 7 9 1765.790 1935.770 49.544 0.706 o
-2 7 10 287.959 313.490 34.037 5.074 o
-2 7 11 2141.780 2205.540 120.695 0.334 o
-2 7 12 373.067 422.797 11.378 7.600 o
-2 7 13 1740.980 1668.790 36.117 0.839 o
-2 7 14 3108.550 3091.690 54.899 0.309 o
-2 7 15 4529.010 4333.260 89.153 0.155 o
-2 7 16 5465.990 5560.700 122.068 0.102 o
-2 7 17 287.587 272.460 7.893 11.745 o
-2 7 18 93.931 104.253 4.538 40.036 o
-2 7 19 34.272 32.252 3.423 116.816 o
-2 7 20 61.130 64.663 4.021 63.466 o
-2 7 21 60.096 52.234 4.171 67.973 o
-2 7 22 363.021 363.965 9.881 8.463 o
-2 7 23 150.027 146.935 6.182 24.569 o
-2 7 24 684.844 694.607 18.901 3.405 o
-2 7 25 364.707 417.201 16.531 7.009 o
-2 7 26 467.408 503.631 18.153 5.298 o
-2 7 27 329.534 366.622 14.212 8.319 o
-2 7 28 6.241 8.195 3.898 337.660 o
-2 7 29 18.433 20.895 6.257 124.868 o
-2 7 30 461.826 481.116 20.891 5.147 o
-2 7 31 120.961 129.524 5.712 30.150 o
-2 7 32 1021.280 751.423 25.927 2.129 o
-2 8 1 13.500 18.779 9.846 78.295 o
-2 8 2 1345.440 1178.000 65.884 0.915 o
-2 8 3 522.366 426.124 16.401 5.330 o
-2 8 4 2568.730 2350.690 82.274 0.374 o
-2 8 5 117.389 116.469 8.872 27.892 o
-2 8 6 1654.400 1868.120 58.146 0.712 o
-2 8 7 2026.900 1896.810 67.519 0.555 o
-2 8 8 1523.130 1509.380 51.748 0.883 o
-2 8 9 1156.160 1257.490 22.030 1.571 o
-2 8 10 1925.510 2127.160 35.511 0.671 o
-2 8 11 44.300 62.389 6.750 63.454 o
-2 8 12 1513.340 1638.590 28.960 1.013 o
-2 8 13 109.331 107.329 6.332 33.514 o
-2 8 14 225.776 224.263 11.101 13.887 o
-2 8 15 898.522 1010.230 36.245 1.868 o
-2 8 16 1456.150 1546.870 42.019 0.987 o
-2 8 17 54.806 48.221 5.854 65.802 o
-2 8 18 120.785 99.881 7.158 30.966 o
-2 8 19 6.589 11.876 4.467 267.217 o
-2 8 20 54.471 42.902 4.806 73.352 o
-2 8 21 44.579 47.129 4.671 81.390 o
-2 8 22 1930.740 2092.720 38.528 0.666 o
-2 8 23 708.087 766.822 17.248 3.231 o
-2 8 24 47.385 49.709 4.879 76.207 o
-2 8 25 129.389 125.524 6.971 27.859 o
-2 8 26 91.306 85.958 5.807 41.250 o
-2 8 27 91.082 78.063 6.099 41.887 o
-2 8 28 1543.220 1671.300 59.242 0.783 o
-2 8 29 24.055 24.845 5.430 122.040 o
-2 8 30 286.399 248.356 8.273 12.092 o
-2 9 1 4594.320 4098.290 130.348 0.138 o
-2 9 2 11202.200 10698.200 430.440 0.020 o
-2 9 3 38.750 21.657 11.766 48.047 o
-2 9 4 1525.290 1557.680 48.428 0.896 o
-2 9 5 6891.480 7075.660 103.802 0.071 o
-2 9 6 2370.180 2517.040 63.064 0.436 o
-2 9 7 9267.010 9656.300 142.343 0.040 o
-2 9 8 4429.220 4469.100 81.689 0.159 o
-2 9 9 65.811 68.716 4.711 57.359 o
-2 9 10 6884.680 7163.010 121.170 0.069 o
-2 9 11 2235.690 2323.440 40.147 0.539 o
-2 9 12 206.152 235.407 9.440 15.220 o
-2 9 13 123.462 125.445 7.119 28.559 o
-2 9 14 3.914 4.635 4.501 348.839 o
-2 9 15 4978.580 5049.970 117.675 0.120 o
-2 9 16 5809.680 6086.070 132.765 0.089 o
-2 9 17 59.329 54.978 5.197 63.503 o
-2 9 18 3367.820 3409.140 73.194 0.253 o
-2 9 19 8.075 26.208 5.495 166.657 o
-2 9 20 543.637 554.760 16.259 4.687 o
-2 9 21 333.972 388.225 12.889 8.296 o
-2 9 22 0.513 0.938 3.989 590.377 o
-2 9 23 611.656 624.498 16.670 4.029 o
-2 9 24 1757.400 1781.170 48.578 0.743 o
-2 9 25 308.298 334.864 10.556 9.782 o
-2 9 26 663.613 693.658 16.667 3.595 o
-2 9 27 45.982 45.373 4.920 79.357 o
-2 9 28 50.969 41.122 5.869 71.174 o
-2 9 29 53.706 45.249 4.507 74.488 o
-2 10 1 24623.900 24881.300 300.478 0.006 o
-2 10 2 674.284 651.673 11.584 3.839 o
-2 10 3 16851.000 16541.400 219.381 0.013 o
-2 10 4 9484.040 9197.600 125.145 0.041 o
-2 10 5 1283.590 1298.270 32.589 1.296 o
-2 10 6 1486.930 1589.380 24.825 1.072 o
-2 10 7 59.713 77.530 4.868 57.786 o
-2 10 8 1117.630 1150.920 22.681 1.687 o
-2 10 9 4710.840 4720.140 84.894 0.143 o
-2 10 10 22.404 34.107 3.875 138.355 o
-2 10 11 10196.200 9998.940 260.261 0.030 o
-2 10 12 596.031 569.700 45.641 2.437 o
-2 10 13 368.244 356.007 14.615 7.703 o
-2 10 14 518.710 553.631 14.320 5.010 o
-2 10 15 109.720 130.771 7.137 30.261 o
-2 10 16 2724.430 2753.670 51.547 0.382 o
-2 10 17 28.932 37.300 4.777 108.493 o
-2 10 18 644.442 654.072 17.813 3.727 o
-2 10 19 1383.030 1425.170 31.855 1.163 o
-2 10 20 97.236 115.743 5.963 35.701 o
-2 10 21 68.438 61.383 4.611 58.230 o
-2 10 22 181.075 183.858 7.809 19.033 o
-2 10 23 19.229 21.772 5.718 132.264 o
-2 10 24 1886.840 1930.210 73.560 0.558 o
-2 10 25 10.758 12.919 3.565 269.170 o
-2 10 26 196.561 192.451 11.107 15.969 o
-2 10 27 149.879 105.981 6.582 26.776 o
-2 11 1 281.278 290.536 7.229 11.793 o
-2 11 2 4530.650 4388.430 68.203 0.162 o
-2 11 3 1636.390 1704.770 56.496 0.759 o
-2 11 4 1359.690 1402.330 26.912 1.233 o
-2 11 5 1304.790 1352.700 24.877 1.324 o
-2 11 6 460.752 507.784 12.469 5.868 o
-2 11 7 2559.410 2572.060 37.567 0.446 o
-2 11 8 21.266 32.137 3.877 144.704 o
-2 11 9 321.584 299.062 14.431 9.044 o
-2 11 10 812.415 879.070 45.201 1.843 o
-2 11 11 182.911 220.111 15.583 13.454 o
-2 11 12 1523.230 1638.600 43.901 0.910 o
-2 11 13 15.269 27.101 5.692 136.246 o
-2 11 14 1223.620 1260.540 24.900 1.458 o
-2 11 15 35.458 28.333 4.459 108.214 o
-2 11 16 568.516 605.115 16.608 4.338 o
-2 11 17 237.512 243.792 9.510 13.617 o
-2 11 18 241.038 250.108 10.144 13.138 o
-2 11 19 2721.320 2741.220 47.589 0.389 o
-2 11 20 382.262 402.290 12.578 7.457 o
-2 11 21 461.006 483.536 11.457 6.075 o
-2 11 22 1382.470 1422.510 25.767 1.213 o
-2 11 23 146.684 136.151 5.694 25.979 o
-2 11 24 347.683 356.330 11.623 8.551 o
-2 11 25 118.503 117.300 5.324 32.045 o
-2 12 1 135.800 132.633 6.291 27.143 o
-2 12 2 16.205 12.376 3.084 240.501 o
-2 12 3 949.590 891.077 17.215 2.314 o
-2 12 4 4118.850 4058.100 62.354 0.191 o
-2 12 5 8.422 13.570 4.169 257.789 o
-2 12 6 159.957 185.639 9.234 19.638 o
-2 12 7 148.952 139.864 8.809 22.894 o
-2 12 8 1.013 9.452 3.697 464.640 o
-2 12 9 440.946 462.427 11.164 6.445 o
-2 12 10 2585.870 2609.240 62.651 0.395 o
-2 12 11 52.436 52.462 5.915 65.669 o
-2 12 12 74.753 94.990 7.328 41.389 o
-2 12 13 2.776 7.967 3.222 505.630 o
-2 12 14 574.648 574.881 13.479 4.579 o
-2 12 15 270.545 305.968 10.470 11.148 o
-2 12 16 222.066 245.581 9.127 14.369 o
-2 12 17 1062.120 1057.300 24.099 1.821 o
-2 12 18 90.001 91.264 4.836 42.620 o
-2 12 19 645.251 668.803 14.244 3.846 o
-2 12 20 140.564 148.124 5.364 26.239 o
-2 12 21 124.887 112.263 4.368 32.264 o
-2 12 22 234.465 226.854 6.700 15.039 o
-2 12 23 116.591 87.571 4.282 36.696 o
-2 13 1 4.778 8.176 2.883 481.255 o
-2 13 2 315.163 290.793 9.318 10.397 o
-2 13 3 462.425 505.412 13.232 5.798 o
-2 13 4 354.080 403.063 11.472 8.050 o
-2 13 5 624.607 651.981 21.158 3.651 o
-2 13 6 901.417 878.267 19.688 2.395 o
-2 13 7 1.922 8.572 3.087 550.754 o
-2 13 8 477.871 449.007 11.737 6.056 o
-2 13 9 37.916 29.743 4.600 101.548 o
-2 13 10 102.659 81.911 7.193 36.233 o
-2 13 11 2075.020 2061.070 51.607 0.582 o
-2 13 12 406.556 402.166 11.786 7.210 o
-2 13 13 261.577 252.568 8.613 12.800 o
-2 13 14 336.760 333.080 11.414 9.023 o
-2 13 15 629.731 625.565 16.445 3.940 o
-2 13 16 126.940 140.168 6.135 27.998 o
-2 13 17 344.077 346.273 7.536 9.335 o
-2 13 18 2.353 1.510 2.739 851.348 o
-2 13 19 353.737 380.321 10.306 8.423 o
-2 13 20 9.136 8.883 5.331 211.826 o
-2 13 21 79.435 57.612 4.431 54.036 o
-2 14 1 941.035 920.828 18.525 2.276 o
-2 14 2 3921.200 3987.130 114.967 0.172 o
-2 14 3 3005.370 2953.230 63.452 0.318 o
-2 14 4 1211.370 1279.730 32.159 1.379 o
-2 14 5 2116.080 2185.270 50.137 0.560 o
-2 14 6 23.103 15.650 3.797 169.603 o
-2 14 7 1.768 9.016 3.405 493.329 o
-2 14 8 5.753 12.237 3.565 340.118 o
-2 14 9 3206.120 3201.330 103.431 0.240 o
-2 14 10 197.144 225.715 8.355 16.414 o
-2 14 11 0.530 9.162 3.287 560.794 o
-2 14 12 2793.080 2950.040 69.658 0.333 o
-2 14 13 92.994 98.951 8.092 34.790 o
-2 14 14 111.899 113.186 8.575 29.346 o
-2 14 15 59.071 60.991 3.774 66.928 o
-2 14 16 95.843 78.524 4.024 44.112 o
-2 14 17 3059.150 2878.810 67.831 0.310 o
-2 14 18 40.572 29.308 3.726 105.142 o
-2 15 1 341.397 392.935 13.750 7.983 o
-2 15 2 25.995 36.626 5.585 104.840 o
-2 15 3 1545.800 1503.720 41.830 0.949 o
-2 15 4 932.855 865.148 24.879 2.218 o
-2 15 5 40.989 38.506 3.752 97.068 o
-2 15 6 362.141 325.811 9.375 8.918 o
-2 15 7 26.802 34.270 3.020 136.494 o
-2 15 8 1.800 6.161 2.919 654.742 o
-2 15 9 878.018 866.357 21.901 2.414 o
-2 15 10 25.064 17.133 2.953 174.178 o
-2 15 11 1.238 3.117 2.056 1233.940 o
-2 15 12 540.643 501.630 13.851 5.074 o
-2 15 13 502.151 500.386 13.590 5.421 o
-2 15 14 171.470 127.760 7.861 22.095 o
-2 15 15 4.437 1.656 2.313 786.094 o
-2 16 1 195.998 194.156 9.008 17.078 o
-2 16 2 484.821 490.998 21.116 4.916 o
-2 16 3 501.428 507.615 21.155 4.739 o
-2 16 4 219.588 194.115 12.723 14.025 o
-2 16 5 417.048 460.124 17.334 6.050 o
-2 16 6 341.476 381.043 20.391 6.853 o
-2 16 7 1011.630 1070.110 27.706 1.829 o
-2 16 8 338.450 396.714 19.776 6.909 o
-2 16 9 0.175 -1.816 2.255 1917.040 o
-2 16 10 75.023 74.987 5.704 48.846 o
-2 16 11 19.777 21.974 3.275 181.460 o
-2 17 1 251.783 220.336 7.999 14.004 o
-2 17 2 429.694 450.216 18.821 5.790 o
-2 17 3 141.642 128.782 13.517 19.400 o
-2 17 4 198.158 203.388 9.971 16.201 o
-2 17 5 17.987 22.081 2.486 207.922 o
-2 17 6 15.370 14.818 2.710 249.805 o
-1 -16 1 267.350 268.422 9.012 12.210 o
-1 -16 2 315.928 296.855 17.514 8.434 o
-1 -16 3 21.749 9.005 2.388 229.708 o
-1 -16 4 3.073 0.869 1.946 1150.990 o
-1 -16 5 156.846 134.480 4.423 25.647 o
-1 -16 6 5.322 3.387 1.684 782.792 o
-1 -16 7 68.115 46.462 4.453 63.398 o
-1 -16 8 0.482 -0.627 3.086 1001.520 o
-1 -16 9 370.724 326.333 8.433 8.870 o
-1 -16 10 5.755 4.704 2.049 638.284 o
-1 -16 11 60.038 40.458 2.726 78.183 o
-1 -16 12 6.175 7.476 1.987 554.879 o
-1 -16 13 49.504 44.912 4.597 78.021 o
-1 -16 14 179.421 153.225 7.977 20.225 o
-1 -16 15 913.320 647.621 23.077 2.571 o
-1 -15 1 7.951 4.329 3.600 368.778 o
-1 -15 2 263.353 274.849 12.189 11.325 o
-1 -15 3 428.906 422.467 10.009 6.954 o
-1 -15 4 621.666 627.542 13.431 4.122 o
-1 -15 5 924.491 923.151 18.138 2.318 o
-1 -15 6 9.354 15.594 2.364 332.284 o
-1 -15 7 455.608 445.152 10.094 6.466 o
-1 -15 8 685.821 664.391 13.578 3.680 o
-1 -15 9 4.730 6.725 2.620 547.944 o
-1 -15 10 181.877 179.471 8.692 18.627 o
-1 -15 11 713.059 747.831 17.044 3.256 o
-1 -15 12 216.639 217.098 6.809 16.180 o
-1 -15 13 126.665 124.505 5.831 29.515 o
-1 -15 14 1611.630 1591.950 37.805 0.915 o
-1 -15 15 126.888 122.054 6.186 29.312 o
-1 -15 16 176.702 144.139 8.935 20.157 o
-1 -15 17 3.234 6.152 4.240 376.637 o
-1 -15 18 78.149 72.759 4.840 50.211 o
-1 -15 19 27.296 22.746 2.813 155.880 o
-1 -15 20 178.883 118.481 10.224 20.014 o
-1 -15 21 4.298 2.983 2.016 818.503 o
-1 -14 1 1632.040 1587.020 50.562 0.824 o
-1 -14 2 1259.970 1295.450 22.693 1.419 o
-1 -14 3 2118.240 2131.070 45.177 0.581 o
-1 -14 4 418.015 442.756 9.876 6.977 o
-1 -14 5 1193.870 1269.970 21.661 1.520 o
-1 -14 6 2328.740 2428.400 42.413 0.499 o
-1 -14 7 582.527 625.395 16.209 4.216 o
-1 -14 8 521.297 528.134 14.392 5.084 o
-1 -14 9 3.588 6.738 3.115 515.606 o
-1 -14 10 145.679 140.410 5.937 25.655 o
-1 -14 11 1647.560 1614.580 27.936 0.943 o
-1 -14 12 2685.830 2700.300 41.330 0.407 o
-1 -14 13 4.175 6.466 2.962 522.554 o
-1 -14 14 926.161 985.669 17.214 2.259 o
-1 -14 15 189.387 210.938 5.707 18.459 o
-1 -14 16 2.154 3.769 2.364 892.365 o
-1 -14 17 1721.990 1739.660 32.921 0.846 o
-1 -14 18 10.639 14.751 2.401 317.186 o
-1 -14 19 6.392 9.135 2.230 487.179 o
-1 -14 20 2145.470 2164.060 75.761 0.472 o
-1 -14 21 792.381 738.804 21.418 2.841 o
-1 -14 22 231.607 216.885 11.042 13.824 o
-1 -14 23 0.742 -0.106 2.247 1670.920 o
-1 -14 24 40.313 26.866 3.144 112.445 o
-1 -13 1 0.059 2.277 3.090 906.658 o
-1 -13 2 310.277 358.069 13.801 8.829 o
-1 -13 3 1087.250 1107.900 30.749 1.641 o
-1 -13 4 815.399 882.078 16.945 2.683 o
-1 -13 5 1810.440 1895.420 31.230 0.776 o
-1 -13 6 207.464 195.179 6.555 17.458 o
-1 -13 7 267.566 315.587 7.598 11.757 o
-1 -13 8 1322.300 1283.580 24.813 1.341 o
-1 -13 9 38.075 42.970 3.239 101.554 o
-1 -13 10 216.618 268.591 6.394 14.980 o
-1 -13 11 1692.960 1831.580 25.393 0.869 o
-1 -13 12 1581.980 1693.010 26.843 0.964 o
-1 -13 13 217.577 227.227 6.360 16.001 o
-1 -13 14 26.629 22.780 3.119 153.959 o
-1 -13 15 57.340 49.133 3.471 74.064 o
-1 -13 16 760.310 793.982 12.664 3.114 o
-1 -13 17 10.138 13.628 2.404 333.416 o
-1 -13 18 1976.990 2194.390 31.248 0.654 o
-1 -13 19 15.435 18.949 2.645 233.531 o
-1 -13 20 103.304 108.303 4.321 37.353 o
-1 -13 21 419.710 465.408 8.701 6.905 o
-1 -13 22 6.745 4.680 1.968 596.784 o
-1 -13 23 1055.320 1131.260 16.704 1.872 o
-1 -13 24 46.516 38.244 2.397 96.850 o
-1 -13 25 10.166 6.804 2.038 425.586 o
-1 -13 26 772.155 580.398 20.700 3.209 o
-1 -12 1 75.598 96.707 4.906 46.398 o
-1 -12 2 160.705 149.914 6.595 22.972 o
-1 -12 3 522.725 542.567 16.794 4.839 o
-1 -12 4 506.091 540.375 16.928 4.959 o
-1 -12 5 439.472 443.618 10.106 6.671 o
-1 -12 6 2.229 5.719 2.715 692.172 o
-1 -12 7 28.578 35.541 2.856 131.624 o
-1 -12 8 311.024 304.263 7.300 10.693 o
-1 -12 9 49.455 41.526 3.008 88.001 o
-1 -12 10 8.469 5.535 2.800 421.456 o
-1 -12 11 725.267 806.896 17.530 3.082 o
-1 -12 12 409.746 391.082 8.175 7.632 o
-1 -12 13 21.898 22.971 2.891 176.399 o
-1 -12 14 31.782 30.451 3.072 127.840 o
-1 -12 15 158.250 155.630 5.787 23.456 o
-1 -12 16 1274.820 1343.490 18.433 1.411 o
-1 -12 17 635.117 684.868 11.643 3.957 o
-1 -12 18 673.016 735.459 11.251 3.647 o
-1 -12 19 251.821 281.739 6.843 13.066 o
-1 -12 20 66.901 64.620 3.309 61.808 o
-1 -12 21 332.169 359.706 6.690 9.556 o
-1 -12 22 80.011 79.658 3.114 51.389 o
-1 -12 23 261.790 287.702 6.307 12.694 o
-1 -12 24 3479.670 3659.380 63.300 0.243 o
-1 -12 25 70.381 79.122 3.268 55.830 o
-1 -12 26 70.772 51.535 2.598 65.210 o
-1 -12 27 121.203 146.947 5.210 29.188 o
-1 -12 28 0.253 -0.449 1.714 3097.550 o
-1 -11 1 1517.480 1465.080 26.577 1.084 o
-1 -11 2 688.460 761.184 13.669 3.443 o
-1 -11 3 1802.720 1766.240 34.657 0.794 o
-1 -11 4 205.584 205.000 5.810 17.542 o
-1 -11 5 2.704 5.638 2.303 766.440 o
-1 -11 6 117.353 112.663 4.877 33.178 o
-1 -11 7 124.157 117.129 4.248 32.051 o
-1 -11 8 1024.830 1032.790 16.176 2.021 o
-1 -11 9 288.708 275.507 6.612 11.913 o
-1 -11 10 75.362 77.408 5.605 48.496 o
-1 -11 11 521.317 599.935 11.566 4.983 o
-1 -11 12 43.093 59.607 3.795 81.256 o
-1 -11 13 103.055 124.850 4.202 35.608 o
-1 -11 14 301.378 274.832 6.083 11.606 o
-1 -11 15 49.102 54.104 3.268 80.282 o
-1 -11 16 71.575 80.390 4.639 51.886 o
-1 -11 17 2158.160 2172.650 38.599 0.583 o
-1 -11 18 388.482 421.302 9.208 7.626 o
-1 -11 19 105.915 111.737 4.170 36.488 o
-1 -11 20 599.566 623.989 10.869 4.377 o
-1 -11 21 208.775 251.106 5.701 16.030 o
-1 -11 22 333.432 378.692 7.578 9.209 o
-1 -11 23 34.730 37.508 2.988 114.160 o
-1 -11 24 54.279 47.274 3.402 77.989 o
-1 -11 25 0.835 -0.508 2.201 1689.900 o
-1 -11 26 16.137 15.667 2.240 253.131 o
-1 -11 27 91.200 92.000 4.056 43.380 o
-1 -11 28 4.124 2.951 2.406 733.646 o
-1 -11 29 216.319 204.877 4.855 17.173 o
-1 -11 30 138.802 122.634 5.164 28.399 o
-1 -10 1 307.607 265.965 5.735 11.604 o
-1 -10 2 1494.620 1446.970 19.315 1.149 o
-1 -10 3 273.003 233.452 5.392 13.488 o
-1 -10 4 2255.470 2226.650 29.606 0.568 o
-1 -10 5 91.487 89.795 3.971 43.770 o
-1 -10 6 3306.770 3299.900 40.417 0.290 o
-1 -10 7 15951.100 15510.500 166.427 0.015 o
-1 -10 8 1103.240 950.337 14.008 1.977 o
-1 -10 9 2672.710 2707.470 29.683 0.422 o
-1 -10 10 1102.940 1110.910 15.229 1.825 o
-1 -10 11 1079.730 1100.150 18.800 1.832 o
-1 -10 12 4661.980 4619.570 52.131 0.157 o
-1 -10 13 1106.550 1141.350 15.597 1.791 o
-1 -10 14 1191.900 1175.690 23.538 1.561 o
-1 -10 15 1910.160 1907.930 29.766 0.736 o
-1 -10 16 408.693 419.308 8.738 7.381 o
-1 -10 17 845.171 912.851 17.510 2.543 o
-1 -10 18 2609.080 2837.420 37.672 0.413 o
-1 -10 19 466.860 490.736 9.682 6.109 o
-1 -10 20 2410.890 2513.550 31.564 0.491 o
-1 -10 21 2049.980 2174.160 29.680 0.637 o
-1 -10 22 1619.790 1610.380 22.881 0.985 o
-1 -10 23 19.940 23.598 2.758 186.877 o
-1 -10 24 0.121 1.705 2.610 1244.760 o
-1 -10 25 122.555 152.221 4.974 28.771 o
-1 -10 26 1510.330 1588.870 23.525 1.062 o
-1 -10 27 9.511 11.595 2.227 373.098 o
-1 -10 28 1130.270 1173.210 17.771 1.709 o
-1 -10 29 462.528 483.851 8.550 6.273 o
-1 -10 30 354.278 387.338 7.453 8.710 o
-1 -10 31 487.134 504.036 40.120 3.128 o
-1 -10 32 153.484 131.188 6.680 24.695 o
-1 -9 1 1438.690 1534.850 18.842 1.162 o
-1 -9 2 1286.260 1359.700 24.548 1.341 o
-1 -9 3 476.920 483.862 7.662 6.165 o
-1 -9 4 2194.550 2073.250 24.145 0.619 o
-1 -9 5 17198.000 16757.600 188.593 0.013 o
-1 -9 6 3189.690 3128.510 38.383 0.312 o
-1 -9 7 476.789 545.774 9.734 5.719 o
-1 -9 8 13945.800 14020.000 158.967 0.019 o
-1 -9 9 49.449 44.693 2.715 87.362 o
-1 -9 10 688.769 691.310 9.831 3.717 o
-1 -9 11 4906.240 4914.510 54.772 0.142 o
-1 -9 12 125.725 123.024 3.520 31.781 o
-1 -9 13 9612.480 9507.750 102.376 0.040 o
-1 -9 14 4222.020 4140.000 46.878 0.189 o
-1 -9 15 523.598 561.976 10.570 5.173 o
-1 -9 16 1979.520 1957.520 28.122 0.704 o
-1 -9 17 138.989 146.807 5.359 26.534 o
-1 -9 18 251.599 285.330 7.619 12.823 o
-1 -9 19 7070.030 7352.330 90.663 0.069 o
-1 -9 20 48.849 47.220 3.607 82.633 o
-1 -9 21 489.335 517.385 10.094 5.712 o
-1 -9 22 3638.960 3601.880 46.557 0.244 o
-1 -9 23 1025.890 1119.840 17.114 1.928 o
-1 -9 24 4088.360 4309.570 54.181 0.189 o
-1 -9 25 59.342 55.586 3.730 68.878 o
-1 -9 26 287.850 317.235 9.180 10.801 o
-1 -9 27 2180.820 2394.740 37.509 0.549 o
-1 -9 28 741.459 803.481 12.440 3.173 o
-1 -9 29 24.144 29.615 2.517 158.635 o
-1 -9 30 62.584 79.714 3.228 60.043 o
-1 -9 31 0.038 -0.533 2.082 2331.120 o
-1 -9 32 203.603 217.598 7.733 16.544 o
-1 -9 33 29.502 34.380 3.651 122.636 o
-1 -8 1 741.804 783.890 31.689 2.535 o
-1 -8 2 85.668 44.522 8.109 43.554 o
-1 -8 3 1385.770 1363.230 115.976 0.486 o
-1 -8 4 61.098 24.355 8.332 56.369 o
-1 -8 5 2209.020 2176.700 98.815 0.389 o
-1 -8 6 4103.430 3930.760 155.647 0.141 o
-1 -8 7 135.890 162.886 16.036 16.413 o
-1 -8 8 3.253 25.486 9.354 92.221 o
-1 -8 9 437.851 414.298 10.824 6.812 o
-1 -8 10 3138.450 3141.720 43.010 0.314 o
-1 -8 11 2255.120 2252.650 46.338 0.528 o
-1 -8 12 511.036 480.790 11.396 5.592 o
-1 -8 13 4610.550 4674.800 66.642 0.154 o
-1 -8 14 357.771 328.766 8.150 9.149 o
-1 -8 15 267.170 314.069 8.016 11.706 o
-1 -8 16 1616.700 1601.570 28.171 0.964 o
-1 -8 17 470.002 489.953 12.473 5.864 o
-1 -8 18 24.597 35.973 4.145 126.425 o
-1 -8 19 19.540 15.392 3.797 186.930 o
-1 -8 20 295.306 283.572 9.359 11.025 o
-1 -8 21 12.403 11.776 3.451 263.646 o
-1 -8 22 937.531 971.016 15.785 2.274 o
-1 -8 23 175.161 227.320 5.991 18.772 o
-1 -8 24 718.633 778.410 13.037 3.298 o
-1 -8 25 1912.610 2037.810 28.249 0.714 o
-1 -8 26 93.684 107.509 4.643 39.509 o
-1 -8 27 2.716 7.380 3.214 520.388 o
-1 -8 28 992.061 1138.810 22.576 1.892 o
-1 -8 29 13.257 12.296 3.255 261.289 o
-1 -8 30 1058.830 1100.320 20.872 1.839 o
-1 -8 31 448.220 526.472 11.082 6.013 o
-1 -8 32 682.956 738.313 18.371 3.345 o
-1 -8 33 490.735 512.281 10.090 5.724 o
-1 -8 34 70.034 79.511 3.871 54.622 o
-1 -7 1 326.770 319.559 19.873 7.544 o
-1 -7 2 526.395 541.260 21.527 4.438 o
-1 -7 3 8.792 26.045 9.332 85.824 o
-1 -7 4 37.102 152.541 19.467 18.364 o
-1 -7 5 13113.200 13871.500 459.412 0.015 o
-1 -7 6 408.768 408.366 36.487 3.897 o
-1 -7 7 1118.030 1062.730 48.367 1.334 o
-1 -7 8 387.616 343.043 20.836 6.465 o
-1 -7 9 186.521 155.150 15.139 14.880 o
-1 -7 10 22.226 24.267 7.433 96.197 o
-1 -7 11 0.469 3.532 7.876 156.815 o
-1 -7 12 884.297 789.735 47.357 1.745 o
-1 -7 13 1214.380 1422.690 28.170 1.348 o
-1 -7 14 428.311 454.468 12.971 6.462 o
-1 -7 15 4.421 7.642 2.783 517.392 o
-1 -7 16 555.363 534.960 12.285 4.929 o
-1 -7 17 2945.650 2939.060 42.221 0.350 o
-1 -7 18 209.646 209.859 7.702 16.434 o
-1 -7 19 476.054 445.397 12.073 6.066 o
-1 -7 20 2876.460 2762.170 43.940 0.370 o
-1 -7 21 54.815 46.220 4.225 74.423 o
-1 -7 22 112.438 94.074 5.880 34.868 o
-1 -7 23 2.020 11.620 3.213 470.465 o
-1 -7 24 39.125 53.651 4.244 86.413 o
-1 -7 25 2375.860 2421.120 38.815 0.497 o
-1 -7 26 499.807 546.336 11.045 5.418 o
-1 -7 27 105.089 104.372 6.105 35.018 o
-1 -7 28 19.905 29.240 4.104 149.971 o
-1 -7 29 45.126 44.361 3.801 87.448 o
-1 -7 30 5.626 6.359 2.768 498.598 o
-1 -7 31 849.874 897.467 15.609 2.592 o
-1 -7 32 2.222 1.623 2.409 1001.750 o
-1 -7 33 11.329 14.404 1.910 331.028 o
-1 -7 34 103.951 107.683 4.215 37.394 o
-1 -7 35 414.961 396.259 10.679 7.260 o
-1 -6 1 120.503 220.087 12.103 19.006 o
-1 -6 2 1141.010 1309.410 97.180 0.659 o
-1 -6 3 6327.220 6691.570 520.436 0.027 o
-1 -6 4 5.493 -1.317 7.325 166.022 o
-1 -6 5 282.319 144.537 16.828 10.963 o
-1 -6 6 4267.070 4980.790 194.093 0.106 o
-1 -6 7 601.397 585.807 25.795 3.621 o
-1 -6 8 3589.150 3082.670 84.836 0.238 o
-1 -6 9 14.711 11.167 5.808 160.855 o
-1 -6 10 1.864 1.436 6.751 207.512 o
-1 -6 11 3020.820 3116.900 120.353 0.234 o
-1 -6 12 212.715 211.897 20.941 10.127 o
-1 -6 13 905.526 802.318 44.190 1.798 o
-1 -6 14 1819.350 1772.060 76.684 0.578 o
-1 -6 15 2821.720 3033.930 116.660 0.254 o
-1 -6 16 2909.270 3067.750 47.922 0.341 o
-1 -6 17 14.659 35.733 3.394 170.927 o
-1 -6 18 486.806 467.485 11.663 5.874 o
-1 -6 19 62.103 62.540 3.533 65.009 o
-1 -6 20 676.949 661.237 12.299 3.777 o
-1 -6 21 1114.050 1058.580 17.681 1.823 o
-1 -6 22 155.407 161.102 5.494 23.647 o
-1 -6 23 2106.380 2125.450 33.181 0.619 o
-1 -6 24 76.818 90.546 3.704 49.433 o
-1 -6 25 372.703 339.442 7.978 8.758 o
-1 -6 26 64.772 54.117 4.117 64.226 o
-1 -6 27 617.006 667.050 22.941 3.552 o
-1 -6 28 458.190 503.993 12.543 5.907 o
-1 -6 29 190.211 212.892 6.028 18.212 o
-1 -6 30 3.028 3.259 2.389 819.530 o
-1 -6 31 2.207 2.730 2.497 895.097 o
-1 -6 32 25.343 32.317 3.327 139.871 o
-1 -6 33 0.340 0.729 2.252 1679.840 o
-1 -6 34 37.847 31.442 4.029 105.418 o
-1 -6 35 175.928 150.837 8.614 20.177 o
-1 -5 1 14162.000 13653.500 254.813 0.018 o
-1 -5 2 11.293 22.625 6.033 146.722 o
-1 -5 3 3686.410 4000.900 249.304 0.097 o
-1 -5 4 11629.300 12134.200 393.793 0.020 o
-1 -5 5 4807.360 4737.170 165.466 0.110 o
-1 -5 6 3984.810 3275.620 82.117 0.209 o
-1 -5 7 643.314 667.204 33.765 2.852 o
-1 -5 8 6523.370 6903.650 201.738 0.063 o
-1 -5 9 18633.800 18986.400 431.709 0.009 o
-1 -5 10 109.914 51.406 10.723 30.857 o
-1 -5 11 192.489 200.048 18.046 12.147 o
-1 -5 12 5003.390 5891.250 202.132 0.085 o
-1 -5 13 136.233 98.583 13.202 21.290 o
-1 -5 14 15690.700 14195.000 840.325 0.008 o
-1 -5 15 479.799 641.124 19.788 4.559 o
-1 -5 16 2035.630 2113.910 65.810 0.535 o
-1 -5 17 3120.720 2978.540 58.156 0.310 o
-1 -5 18 59.422 75.338 3.305 63.163 o
-1 -5 19 166.650 165.858 4.724 22.650 o
-1 -5 20 6624.010 6639.930 87.992 0.079 o
-1 -5 21 2228.420 2258.550 32.935 0.565 o
-1 -5 22 1826.190 1998.080 29.788 0.752 o
-1 -5 23 355.776 385.469 8.849 8.534 o
-1 -5 24 19.813 29.946 2.523 175.949 o
-1 -5 25 135.619 123.162 5.263 28.754 o
-1 -5 26 259.638 247.981 7.369 13.291 o
-1 -5 27 427.611 405.836 9.773 7.108 o
-1 -5 28 1306.970 1448.990 28.907 1.242 o
-1 -5 29 238.849 253.774 5.248 14.562 o
-1 -5 30 56.633 53.834 3.979 70.756 o
-1 -5 31 10.324 4.971 1.564 482.403 o
-1 -5 32 237.456 246.563 9.510 13.564 o
-1 -5 33 379.859 442.865 9.386 7.574 o
-1 -5 34 10.944 10.299 2.381 349.204 o
-1 -5 35 10.580 7.728 2.749 356.000 o
-1 -5 36 3.409 7.487 1.681 771.557 o
-1 -4 1 9174.650 9388.620 316.200 0.031 o
-1 -4 2 1995.160 1825.090 49.478 0.648 o
-1 -4 3 95.918 110.074 11.218 27.696 o
-1 -4 4 106.540 117.585 11.855 24.962 o
-1 -4 5 2480.320 2466.630 85.789 0.370 o
-1 -4 6 1439.280 1419.660 48.465 0.979 o
-1 -4 7 22375.000 22308.600 688.183 0.006 o
-1 -4 8 176.979 200.410 11.994 16.268 o
-1 -4 9 8862.840 9242.550 302.048 0.033 o
-1 -4 10 1209.370 1210.280 51.550 1.157 o
-1 -4 11 14825.200 16147.200 515.769 0.012 o
-1 -4 12 12744.700 12234.400 394.393 0.018 o
-1 -4 13 14.735 16.129 6.576 133.110 o
-1 -4 14 439.629 397.365 13.410 6.619 o
-1 -4 15 5441.130 5027.680 116.410 0.110 o
-1 -4 16 0.007 10.411 7.617 156.032 o
-1 -4 17 44.780 84.096 7.193 55.053 o
-1 -4 18 1251.240 1002.940 37.349 1.411 o
-1 -4 19 1.326 11.972 2.465 611.154 o
-1 -4 20 2698.610 2546.100 39.449 0.420 o
-1 -4 21 125.347 136.726 6.868 27.746 o
-1 -4 22 95.671 80.914 4.293 43.361 o
-1 -4 23 442.715 460.844 9.456 6.579 o
-1 -4 24 0.268 -0.181 2.768 1271.870 o
-1 -4 25 7.267 5.813 3.321 395.066 o
-1 -4 26 2016.030 1923.290 35.177 0.676 o
-1 -4 27 2237.140 2285.580 36.761 0.551 o
-1 -4 28 87.468 99.385 4.902 42.042 o
-1 -4 29 424.964 464.685 11.918 6.550 o
-1 -4 30 114.352 129.175 4.455 32.577 o
-1 -4 31 1125.440 1193.520 20.539 1.671 o
-1 -4 32 523.848 631.418 13.499 4.734 o
-1 -4 33 24.277 26.101 4.004 142.710 o
-1 -4 34 17.907 10.668 2.287 258.783 o
-1 -4 35 340.681 343.127 28.825 5.510 o
-1 -4 36 32.854 18.202 2.245 150.858 o
-1 -3 1 6663.440 6528.620 186.692 0.066 o
-1 -3 2 242.294 218.966 28.989 6.895 o
-1 -3 3 6605.280 6049.690 196.621 0.067 o
-1 -3 4 2.464 4.319 4.090 436.323 o
-1 -3 5 17253.100 16863.500 363.659 0.012 o
-1 -3 6 25566.300 26264.100 695.572 0.005 o
-1 -3 7 116.503 78.845 9.299 30.187 o
-1 -3 8 10384.700 10782.800 346.068 0.025 o
-1 -3 9 10391.500 10849.400 347.992 0.025 o
-1 -3 10 1490.950 1384.390 53.693 0.914 o
-1 -3 11 66.884 188.909 13.684 22.768 o
-1 -3 12 155.260 173.500 13.022 17.523 o
-1 -3 13 3339.250 4181.670 140.185 0.172 o
-1 -3 14 8232.820 8774.170 197.532 0.045 o
-1 -3 15 2666.370 2714.700 64.475 0.373 o
-1 -3 16 1086.090 991.359 36.204 1.623 o
-1 -3 17 82.974 53.354 6.316 48.269 o
-1 -3 18 9110.660 8769.650 278.217 0.035 o
-1 -3 19 35.308 30.518 5.544 95.742 o
-1 -3 20 2.120 4.468 3.064 650.779 o
-1 -3 21 1711.190 1570.940 33.289 0.893 o
-1 -3 22 13.903 17.203 3.208 235.260 o
-1 -3 23 180.076 202.521 6.284 19.191 o
-1 -3 24 5605.400 5432.190 79.584 0.110 o
-1 -3 25 2804.290 2788.540 43.109 0.379 o
-1 -3 26 1133.360 1091.480 22.020 1.716 o
-1 -3 27 2214.310 2111.740 43.804 0.562 o
-1 -3 28 1003.150 994.946 23.489 1.983 o
-1 -3 29 8.531 12.860 3.032 328.538 o
-1 -3 30 653.285 700.940 13.191 3.765 o
-1 -3 31 674.681 701.566 11.868 3.702 o
-1 -3 32 2316.450 2299.270 36.170 0.530 o
-1 -3 33 640.545 679.674 16.355 3.752 o
-1 -3 34 405.035 401.434 10.489 7.387 o
-1 -3 35 710.928 702.408 25.130 3.018 o
-1 -3 36 332.178 332.475 19.793 7.398 o
-1 -2 1 1663.350 1583.860 59.270 0.753 o
-1 -2 2 5610.580 5228.080 167.651 0.091 o
-1 -2 3 6732.080 6706.010 151.996 0.069 o
-1 -2 4 346.163 406.687 10.352 8.316 o
-1 -2 5 267.858 309.341 8.445 11.665 o
-1 -2 6 44582.000 41324.200 1243.020 0.002 o
-1 -2 7 5943.220 5687.150 312.616 0.053 o
-1 -2 8 2345.840 2207.240 76.588 0.432 o
-1 -2 9 8861.900 8946.680 285.520 0.035 o
-1 -2 10 1974.360 1893.100 66.490 0.573 o
-1 -2 11 18374.000 17820.500 559.850 0.009 o
-1 -2 12 667.321 698.560 28.605 3.002 o
-1 -2 13 324.374 355.657 13.387 8.670 o
-1 -2 14 322.229 133.189 7.057 13.165 o
-1 -2 15 2424.990 2417.010 100.926 0.344 o
-1 -2 16 14061.200 14097.700 375.287 0.016 o
-1 -2 17 2141.370 2070.450 70.505 0.500 o
-1 -2 18 0.425 3.034 4.349 470.961 o
-1 -2 19 4280.580 4138.020 135.562 0.144 o
-1 -2 20 3414.240 3521.940 117.074 0.204 o
-1 -2 21 1924.420 1934.140 34.485 0.710 o
-1 -2 22 297.906 328.921 11.811 9.827 o
-1 -2 23 425.350 385.451 18.521 6.193 o
-1 -2 24 634.910 628.752 12.773 4.071 o
-1 -2 25 390.247 381.574 9.222 7.916 o
-1 -2 26 3.484 4.765 2.516 687.654 o
-1 -2 27 432.692 403.221 9.611 7.071 o
-1 -2 28 627.827 609.707 14.278 4.099 o
-1 -2 29 203.051 214.816 6.594 17.109 o
-1 -2 30 0.531 0.520 2.328 1558.410 o
-1 -2 31 57.120 58.913 3.283 70.805 o
-1 -2 32 426.757 437.916 9.712 6.907 o
-1 -2 33 348.768 346.820 8.818 9.056 o
-1 -2 34 71.414 87.274 4.547 50.672 o
-1 -2 35 47.170 42.456 3.922 85.489 o
-1 -2 36 14.307 10.247 1.873 318.621 o
-1 -1 1 5636.090 5619.110 178.885 0.084 o
-1 -1 2 18075.700 16667.600 741.924 0.008 o
-1 -1 3 42.597 71.897 5.391 68.352 o
-1 -1 4 2897.530 2804.780 65.164 0.336 o
-1 -1 5 7277.070 7265.800 162.930 0.060 o
-1 -1 6 7.458 14.443 2.703 354.799 o
-1 -1 7 257336.000 227806.000 4066.480 0.000 o
-1 -1 8 419.988 361.331 9.798 7.540 o
-1 -1 9 3150.700 3024.710 59.160 0.303 o
-1 -1 10 448.303 612.027 15.827 5.223 o
-1 -1 11 9997.270 9596.840 220.325 0.033 o
-1 -1 12 26285.300 27321.200 862.087 0.004 o
-1 -1 13 3.539 14.363 10.495 81.347 o
-1 -1 14 2480.990 2443.500 61.426 0.427 o
-1 -1 15 11755.400 11687.200 264.445 0.024 o
-1 -1 16 276.686 384.874 14.818 8.993 o
-1 -1 17 6550.970 6165.350 147.040 0.075 o
-1 -1 18 375.332 338.071 29.203 5.215 o
-1 -1 19 336.960 253.871 12.654 9.603 o
-1 -1 20 1135.530 1248.350 22.327 1.600 o
-1 -1 21 21.916 20.081 2.511 190.258 o
-1 -1 22 74.884 98.677 4.129 47.819 o
-1 -1 23 2049.730 2041.090 32.699 0.652 o
-1 -1 24 1011.130 981.028 17.940 2.074 o
-1 -1 25 936.808 884.710 16.644 2.362 o
-1 -1 26 30.893 34.459 3.739 118.547 o
-1 -1 27 203.702 201.479 6.467 17.531 o
-1 -1 28 14.399 11.327 2.578 282.719 o
-1 -1 29 516.389 549.504 11.781 5.214 o
-1 -1 30 7.022 8.893 2.832 412.544 o
-1 -1 31 274.562 256.209 8.990 12.179 o
-1 -1 32 0.119 -0.704 2.413 1707.730 o
-1 -1 33 35.201 37.868 2.565 115.876 o
-1 -1 34 14.925 15.209 2.919 245.010 o
-1 -1 35 26.517 24.360 3.361 148.149 o
-1 -1 36 214.735 219.721 5.861 16.527 o
-1 0 1 5227.590 4823.800 264.805 0.071 o
-1 0 2 33726.200 31499.500 976.698 0.003 o
-1 0 3 2096.710 1822.510 204.073 0.184 o
-1 0 4 464.061 464.652 15.027 5.815 o
-1 0 5 2150.880 1872.430 61.278 0.553 o
-1 0 6 4959.680 4667.630 106.822 0.129 o
-1 0 7 9933.150 9916.800 219.625 0.033 o
-1 0 8 90406.200 82150.900 5776.440 0.000 o
-1 0 9 2691.380 2394.380 86.758 0.347 o
-1 0 10 6659.590 6742.840 223.537 0.059 o
-1 0 11 812.490 684.997 34.798 2.365 o
-1 0 12 255.145 229.142 18.649 9.918 o
-1 0 13 14366.900 14779.300 478.242 0.013 o
-1 0 14 1043.770 1142.830 54.236 1.263 o
-1 0 15 1038.020 1237.940 59.488 1.149 o
-1 0 16 10703.700 10541.000 353.256 0.024 o
-1 0 17 690.208 644.901 40.925 2.407 o
-1 0 18 478.243 427.378 16.607 5.695 o
-1 0 19 53.665 68.824 6.683 56.584 o
-1 0 20 108.360 131.272 9.235 27.622 o
-1 0 21 1161.360 935.407 17.606 1.848 o
-1 0 22 304.719 272.940 7.565 11.274 o
-1 0 23 161.816 122.346 5.233 25.286 o
-1 0 24 51.379 61.540 5.174 66.763 o
-1 0 25 1732.400 1631.000 35.430 0.856 o
-1 0 26 272.557 247.222 9.506 12.259 o
-1 0 27 345.109 357.328 11.671 8.581 o
-1 0 28 187.001 177.014 6.828 19.366 o
-1 0 29 0.577 -0.265 3.213 917.279 o
-1 0 30 0.289 2.164 3.039 911.557 o
-1 0 31 3.245 1.682 2.770 751.505 o
-1 0 32 527.886 543.069 13.920 5.007 o
-1 0 33 92.882 94.847 5.945 39.325 o
-1 0 34 43.656 49.989 3.127 89.370 o
-1 0 35 14.460 11.481 2.834 270.783 o
-1 0 36 247.372 213.636 6.632 14.757 o
-1 1 1 2470.050 2563.030 82.691 0.373 o
-1 1 2 4145.150 3810.650 122.441 0.162 o
-1 1 3 4321.150 4040.500 167.386 0.127 o
-1 1 4 1582.150 1725.210 60.383 0.750 o
-1 1 5 895.537 906.202 34.105 2.013 o
-1 1 6 1394.910 1418.480 88.519 0.653 o
-1 1 7 6054.020 5564.820 193.696 0.076 o
-1 1 8 410.215 429.788 13.126 6.816 o
-1 1 9 2448.900 2148.950 296.917 0.096 o
-1 1 10 130.343 108.615 12.198 22.563 o
-1 1 11 28961.200 28947.500 646.739 0.004 o
-1 1 12 3994.480 4529.210 112.401 0.160 o
-1 1 13 9056.750 9808.990 201.916 0.038 o
-1 1 14 21725.100 21173.200 380.913 0.008 o
-1 1 15 814.501 890.531 19.104 2.620 o
-1 1 16 4345.190 4397.900 101.531 0.155 o
-1 1 17 213.546 288.171 9.618 13.651 o
-1 1 18 341.110 414.794 12.708 7.980 o
-1 1 19 11898.500 11663.500 240.953 0.024 o
-1 1 20 1207.180 1129.440 19.030 1.619 o
-1 1 21 146.862 140.148 5.330 25.968 o
-1 1 22 1880.190 1887.740 27.171 0.761 o
-1 1 23 29.131 44.139 3.649 113.132 o
-1 1 24 6.915 24.920 3.321 258.723 o
-1 1 25 1143.930 1132.210 20.243 1.692 o
-1 1 26 270.337 279.479 11.451 11.273 o
-1 1 27 3272.420 3333.830 68.203 0.268 o
-1 1 28 112.633 130.135 7.343 29.584 o
-1 1 29 1443.590 1528.810 44.067 0.983 o
-1 1 30 25.638 14.861 3.400 168.498 o
-1 1 31 414.337 445.063 11.690 6.828 o
-1 1 32 210.044 209.687 9.614 15.589 o
-1 1 33 540.207 535.990 12.841 5.009 o
-1 1 34 1098.660 1080.250 28.023 1.688 o
-1 1 35 158.783 161.798 8.277 21.392 o
-1 1 36 94.621 88.648 5.037 41.285 o
-1 2 1 1463.240 1494.860 29.633 1.093 o
-1 2 2 34022.000 33746.500 1050.850 0.003 o
-1 2 3 49.997 123.156 50.353 3.776 o
-1 2 4 591.296 693.452 30.053 3.184 o
-1 2 5 141.088 137.257 9.048 23.595 o
-1 2 6 251.147 237.155 8.626 13.491 o
-1 2 7 21224.100 21695.800 564.724 0.007 o
-1 2 8 45.441 56.651 8.458 55.481 o
-1 2 9 460.416 502.015 14.240 5.744 o
-1 2 10 1754.660 1646.260 85.987 0.559 o
-1 2 11 2037.490 1752.790 206.831 0.182 o
-1 2 12 7305.970 7051.400 198.026 0.056 o
-1 2 13 215.709 199.680 9.159 15.760 o
-1 2 14 3977.440 4376.460 103.746 0.168 o
-1 2 15 5578.100 5235.180 104.854 0.107 o
-1 2 16 198.497 303.054 14.502 12.032 o
-1 2 17 782.569 813.345 22.397 2.726 o
-1 2 18 35.710 36.152 4.796 98.222 o
-1 2 19 388.846 399.890 9.508 7.757 o
-1 2 20 12822.000 12725.100 180.249 0.022 o
-1 2 21 760.984 716.456 14.561 3.209 o
-1 2 22 602.085 606.772 14.142 4.265 o
-1 2 23 9332.180 9059.250 134.537 0.042 o
-1 2 24 535.154 501.391 15.222 5.019 o
-1 2 25 2.603 12.243 2.845 491.183 o
-1 2 26 370.972 334.207 7.722 8.875 o
-1 2 27 377.188 444.513 11.152 7.403 o
-1 2 28 554.749 572.281 17.990 4.435 o
-1 2 29 284.677 316.334 10.552 10.596 o
-1 2 30 73.229 79.273 4.704 51.248 o
-1 2 31 531.940 535.968 10.866 5.195 o
-1 2 32 63.706 55.298 3.139 67.566 o
-1 2 33 172.979 143.278 7.792 21.305 o
-1 2 34 175.854 179.014 5.759 20.702 o
-1 2 35 489.055 374.013 10.247 6.479 o
-1 3 1 9572.990 9543.000 174.965 0.037 o
-1 3 2 60524.800 58653.100 1824.040 0.001 o
-1 3 3 59555.800 53501.900 3594.350 0.000 o
-1 3 4 11274.500 10530.700 330.289 0.024 o
-1 3 5 81.977 134.518 10.172 29.742 o
-1 3 6 1540.270 1480.890 38.513 0.983 o
-1 3 7 656.549 700.136 18.449 3.535 o
-1 3 8 471.072 324.670 12.950 6.732 o
-1 3 9 1527.690 1557.680 65.614 0.764 o
-1 3 10 18011.000 19489.700 486.657 0.009 o
-1 3 11 1237.570 1178.620 32.049 1.406 o
-1 3 12 37.633 41.097 2.589 107.946 o
-1 3 13 4087.800 4904.760 82.195 0.164 o
-1 3 14 1742.750 1856.400 47.534 0.740 o
-1 3 15 3348.830 3644.540 70.430 0.248 o
-1 3 16 5226.160 5067.350 96.694 0.120 o
-1 3 17 141.936 120.783 6.090 27.294 o
-1 3 18 109.471 83.342 5.541 37.250 o
-1 3 19 343.424 306.164 7.890 9.756 o
-1 3 20 2135.790 2063.930 32.536 0.621 o
-1 3 21 81.728 88.948 4.616 46.165 o
-1 3 22 235.427 240.475 7.286 14.498 o
-1 3 23 184.105 203.072 6.880 18.607 o
-1 3 24 579.278 558.432 20.219 4.176 o
-1 3 25 410.123 396.350 9.055 7.501 o
-1 3 26 8.918 14.119 3.106 309.107 o
-1 3 27 200.629 199.334 6.238 17.887 o
-1 3 28 215.064 233.217 7.091 15.733 o
-1 3 29 145.290 149.945 6.954 24.342 o
-1 3 30 2.519 1.497 3.270 662.767 o
-1 3 31 18.683 15.905 2.514 223.697 o
-1 3 32 15.687 12.931 2.677 256.810 o
-1 3 33 22.900 26.726 3.284 157.837 o
-1 3 34 109.743 100.680 5.399 35.391 o
-1 4 1 11335.300 10509.300 236.572 0.027 o
-1 4 2 2253.680 2448.660 91.233 0.387 o
-1 4 3 4596.000 4037.820 137.214 0.135 o
-1 4 5 3790.140 3747.920 126.896 0.174 o
-1 4 6 3966.380 4228.970 142.363 0.148 o
-1 4 7 23.705 9.870 5.362 143.744 o
-1 4 8 448.545 472.870 22.569 5.092 o
-1 4 9 126.825 79.922 5.315 34.072 o
-1 4 10 522.422 477.252 19.269 4.871 o
-1 4 11 42.268 72.998 5.639 66.968 o
-1 4 12 7726.680 7804.830 102.648 0.059 o
-1 4 13 3878.920 3595.180 58.889 0.220 o
-1 4 14 1433.680 1378.660 25.397 1.191 o
-1 4 15 91.200 82.209 3.981 45.126 o
-1 4 16 2532.560 2821.250 45.323 0.417 o
-1 4 17 5604.230 5855.570 84.032 0.104 o
-1 4 18 1239.150 1163.470 20.900 1.537 o
-1 4 19 260.469 263.305 6.927 13.068 o
-1 4 20 300.696 317.968 8.231 10.626 o
-1 4 21 985.429 1054.220 19.222 2.033 o
-1 4 22 127.246 136.119 6.157 28.227 o
-1 4 23 6.920 7.316 3.547 364.850 o
-1 4 24 1149.830 1110.770 25.077 1.639 o
-1 4 25 636.945 675.398 15.423 3.822 o
-1 4 26 79.132 78.006 4.573 49.333 o
-1 4 27 106.281 83.844 4.543 39.443 o
-1 4 28 1.004 2.453 2.530 1061.420 o
-1 4 29 96.402 100.919 5.012 39.126 o
-1 4 30 276.414 283.035 8.909 11.702 o
-1 4 31 41.065 41.938 3.711 94.792 o
-1 4 32 12.694 7.140 3.261 296.447 o
-1 4 33 41.491 45.125 3.452 93.618 o
-1 4 34 79.247 59.269 4.225 54.237 o
-1 5 1 25277.500 23117.400 1335.840 0.003 o
-1 5 2 4.636 24.609 5.301 193.110 o
-1 5 3 1726.540 1722.360 66.277 0.666 o
-1 5 4 552.628 439.416 25.904 4.202 o
-1 5 5 11691.600 12615.600 408.379 0.019 o
-1 5 6 7676.320 8055.500 517.961 0.024 o
-1 5 7 2668.450 2655.020 70.180 0.366 o
-1 5 8 49.261 53.737 7.744 57.915 o
-1 5 10 2269.500 2024.960 38.186 0.573 o
-1 5 11 3394.460 3329.450 53.595 0.270 o
-1 5 12 554.888 498.940 11.105 5.145 o
-1 5 13 2416.090 2570.060 46.159 0.459 o
-1 5 14 8.442 5.839 2.469 450.296 o
-1 5 15 4409.550 4229.100 64.512 0.172 o
-1 5 16 90.046 93.723 3.763 43.900 o
-1 5 17 364.078 378.668 8.393 8.498 o
-1 5 18 1013.070 1016.300 16.570 2.055 o
-1 5 19 195.669 256.694 6.372 16.394 o
-1 5 20 4186.790 4184.060 54.560 0.187 o
-1 5 21 36.028 33.213 3.425 112.314 o
-1 5 22 2.915 6.356 3.043 564.053 o
-1 5 23 397.810 396.207 9.781 7.615 o
-1 5 24 117.149 122.438 7.106 29.773 o
-1 5 25 287.992 296.421 9.184 11.089 o
-1 5 26 567.738 590.698 13.992 4.543 o
-1 5 27 693.166 701.758 13.863 3.548 o
-1 5 28 182.601 225.401 6.414 18.148 o
-1 5 29 21.196 11.314 3.853 187.457 o
-1 5 30 1583.820 1747.320 62.598 0.731 o
-1 5 31 15.215 14.409 3.729 217.793 o
-1 5 32 3.437 2.011 2.649 758.881 o
-1 5 33 29.603 20.534 3.266 145.673 o
-1 6 1 4372.360 4146.810 82.783 0.168 o
-1 6 2 14809.500 14113.100 262.199 0.017 o
-1 6 3 4731.750 5620.130 186.972 0.095 o
-1 6 4 4217.830 4893.690 156.915 0.124 o
-1 6 5 2035.600 2034.450 81.224 0.485 o
-1 6 6 6377.320 6771.570 231.323 0.060 o
-1 6 7 4075.730 3802.050 350.868 0.060 o
-1 6 8 1008.530 707.597 44.480 1.718 o
-1 6 9 1911.870 2224.680 60.408 0.571 o
-1 6 10 2110.120 2624.340 107.706 0.350 o
-1 6 11 654.986 746.129 20.580 3.348 o
-1 6 12 683.341 712.398 14.783 3.536 o
-1 6 13 175.618 135.136 5.038 23.143 o
-1 6 14 0.849 3.300 2.514 1028.270 o
-1 6 15 109.590 87.005 4.392 38.358 o
-1 6 16 9455.950 9476.950 126.314 0.040 o
-1 6 17 5861.530 5873.480 97.062 0.097 o
-1 6 18 1592.190 1505.820 27.898 1.011 o
-1 6 19 908.455 915.956 16.458 2.397 o
-1 6 20 432.589 437.679 9.294 6.868 o
-1 6 21 1116.830 1008.270 16.659 1.872 o
-1 6 22 204.613 184.213 5.719 18.326 o
-1 6 23 891.910 960.309 17.107 2.371 o
-1 6 24 625.573 651.589 12.307 4.078 o
-1 6 25 440.234 420.962 14.478 6.352 o
-1 6 26 18.477 18.298 3.401 194.980 o
-1 6 27 5.097 6.550 2.794 510.843 o
-1 6 28 43.388 47.361 5.832 75.137 o
-1 6 29 39.789 43.420 5.276 84.457 o
-1 6 30 170.252 162.652 7.894 20.641 o
-1 6 31 428.584 447.427 13.761 6.415 o
-1 6 32 0.152 -1.676 1.833 2859.500 o
-1 7 1 791.710 599.512 25.310 2.915 o
-1 7 2 2991.640 3026.640 56.821 0.323 o
-1 7 3 2273.490 2289.220 51.097 0.507 o
-1 7 4 456.568 497.229 16.957 5.538 o
-1 7 5 630.665 686.327 23.377 3.430 o
-1 7 6 3027.420 3142.000 142.488 0.206 o
-1 7 7 4047.150 3957.000 252.246 0.092 o
-1 7 8 1164.070 1151.590 63.880 1.037 o
-1 7 9 48.820 95.487 14.175 29.149 o
-1 7 10 668.788 637.938 28.101 3.124 o
-1 7 11 747.059 730.090 17.754 3.135 o
-1 7 12 823.854 886.406 18.670 2.610 o
-1 7 13 4303.460 4584.040 100.054 0.154 o
-1 7 14 116.551 79.892 5.483 36.079 o
-1 7 15 2274.830 2260.120 37.451 0.543 o
-1 7 16 26.705 47.371 4.646 105.002 o
-1 7 17 3963.060 3919.450 68.771 0.200 o
-1 7 18 61.037 65.915 7.958 48.900 o
-1 7 19 257.058 233.808 7.320 13.694 o
-1 7 20 32.876 27.104 3.093 129.077 o
-1 7 21 31.340 42.622 3.710 109.831 o
-1 7 22 1222.630 1265.670 24.434 1.461 o
-1 7 23 189.479 217.088 8.294 17.136 o
-1 7 24 620.333 691.954 17.186 3.782 o
-1 7 25 349.107 397.027 13.041 7.942 o
-1 7 26 243.348 256.520 9.760 13.059 o
-1 7 27 631.951 636.852 16.568 3.893 o
-1 7 28 74.040 79.588 6.192 47.042 o
-1 7 29 4.562 7.781 5.014 273.036 o
-1 7 30 0.107 -2.396 3.120 1034.860 o
-1 7 31 202.823 157.041 9.185 17.701 o
-1 8 1 7816.040 7422.650 205.491 0.051 o
-1 8 2 6652.520 6665.150 141.016 0.072 o
-1 8 3 315.126 445.639 14.942 7.774 o
-1 8 4 22792.600 21922.300 381.324 0.007 o
-1 8 5 3693.000 4060.130 115.375 0.180 o
-1 8 6 384.253 440.773 16.913 6.568 o
-1 8 7 316.750 365.557 23.989 6.520 o
-1 8 8 2020.340 2089.300 66.780 0.537 o
-1 8 9 452.630 402.079 11.620 6.624 o
-1 8 10 4830.690 4873.850 76.843 0.139 o
-1 8 11 288.599 280.089 9.472 11.243 o
-1 8 12 504.029 491.591 19.491 4.932 o
-1 8 13 1.967 5.214 3.803 484.558 o
-1 8 14 17.240 29.988 4.256 155.014 o
-1 8 15 2538.260 2524.880 43.578 0.445 o
-1 8 16 30.234 25.875 4.186 124.507 o
-1 8 17 277.448 272.891 14.346 10.322 o
-1 8 18 61.712 66.770 5.376 57.922 o
-1 8 19 73.516 91.794 7.103 42.790 o
-1 8 20 11.521 20.221 4.269 204.181 o
-1 8 21 507.332 536.292 16.100 5.032 o
-1 8 22 184.507 181.020 8.625 18.433 o
-1 8 23 1411.030 1458.930 39.982 1.060 o
-1 8 24 220.527 226.436 9.396 14.769 o
-1 8 25 377.558 402.447 12.387 7.552 o
-1 8 26 58.780 61.130 5.001 62.667 o
-1 8 27 95.664 97.816 5.277 39.323 o
-1 8 28 102.886 85.761 5.402 38.810 o
-1 8 29 1.142 -1.095 3.818 630.377 o
-1 8 30 31.079 26.117 3.155 134.446 o
-1 9 1 4642.210 4398.070 97.729 0.146 o
-1 9 2 6412.220 5940.910 105.665 0.085 o
-1 9 3 1767.420 1835.190 37.610 0.782 o
-1 9 4 232.039 199.164 10.025 14.609 o
-1 9 5 304.287 402.046 9.950 9.236 o
-1 9 6 4.810 6.768 2.656 538.163 o
-1 9 7 35.136 30.650 2.882 121.404 o
-1 9 8 1667.440 1863.530 33.801 0.838 o
-1 9 9 31.223 31.890 4.840 108.536 o
-1 9 10 4471.190 4699.880 70.189 0.157 o
-1 9 11 2061.800 2247.300 48.902 0.570 o
-1 9 12 899.743 891.320 22.402 2.321 o
-1 9 13 251.158 214.219 8.302 14.068 o
-1 9 14 11.178 20.477 3.476 234.387 o
-1 9 15 1949.540 2086.480 40.430 0.654 o
-1 9 16 1832.400 1963.450 38.687 0.724 o
-1 9 17 1450.380 1511.600 31.348 1.084 o
-1 9 18 199.879 185.344 8.178 17.527 o
-1 9 19 633.253 596.920 18.068 3.912 o
-1 9 20 68.025 58.220 5.014 58.043 o
-1 9 21 870.304 869.130 18.871 2.503 o
-1 9 22 154.348 131.940 6.164 24.950 o
-1 9 23 1702.310 1793.270 50.361 0.753 o
-1 9 24 195.306 183.088 9.484 17.197 o
-1 9 25 49.251 41.662 5.030 77.339 o
-1 9 26 110.387 120.905 12.048 24.103 o
-1 9 27 74.929 59.390 5.777 51.936 o
-1 9 28 239.089 171.244 8.365 15.622 o
-1 10 1 1371.050 1374.220 20.310 1.284 o
-1 10 2 254.662 265.188 8.130 12.953 o
-1 10 3 12384.600 12358.300 218.072 0.023 o
-1 10 4 1903.070 1810.830 34.892 0.741 o
-1 10 5 506.709 453.489 11.264 5.775 o
-1 10 6 2651.210 2682.750 59.463 0.386 o
-1 10 7 1728.650 1693.250 30.999 0.863 o
-1 10 8 17021.900 17153.500 242.737 0.013 o
-1 10 9 674.953 707.265 15.331 3.566 o
-1 10 10 111.143 131.312 11.821 23.797 o
-1 10 11 3608.630 3849.000 62.562 0.227 o
-1 10 12 1939.090 2032.260 37.893 0.675 o
-1 10 13 130.875 137.084 6.534 27.285 o
-1 10 14 3802.250 3865.730 57.023 0.217 o
-1 10 15 424.307 416.596 10.516 7.006 o
-1 10 16 1866.570 1963.290 38.784 0.711 o
-1 10 17 1295.770 1323.310 30.111 1.298 o
-1 10 18 24.646 26.617 5.132 123.339 o
-1 10 19 242.049 247.849 12.437 12.324 o
-1 10 20 99.168 92.457 5.309 39.054 o
-1 10 21 471.960 487.644 13.906 5.732 o
-1 10 22 2840.100 3014.500 51.102 0.349 o
-1 10 23 228.257 246.327 8.562 14.279 o
-1 10 24 203.972 200.713 7.107 17.281 o
-1 10 25 445.506 460.664 11.316 6.388 o
-1 10 26 5.116 4.733 1.669 746.700 o
-1 11 1 9843.680 9800.400 165.759 0.036 o
-1 11 2 1830.940 1903.100 29.282 0.772 o
-1 11 3 2455.270 2405.340 40.509 0.478 o
-1 11 4 2988.150 2993.160 59.237 0.323 o
-1 11 5 113.592 108.571 5.683 33.402 o
-1 11 6 8446.560 8458.980 117.763 0.050 o
-1 11 7 3600.850 3456.870 53.520 0.248 o
-1 11 8 8.643 16.508 2.959 304.687 o
-1 11 9 683.834 689.755 15.244 3.569 o
-1 11 10 478.005 504.211 16.392 5.375 o
-1 11 11 507.863 503.511 16.417 5.130 o
-1 11 12 170.707 166.487 7.610 20.627 o
-1 11 13 5.188 9.587 3.233 408.575 o
-1 11 14 784.464 778.116 17.067 2.940 o
-1 11 15 211.519 225.520 9.947 14.981 o
-1 11 16 128.635 145.402 7.387 26.204 o
-1 11 17 32.084 35.322 4.652 106.039 o
-1 11 18 246.300 257.778 9.371 13.048 o
-1 11 19 26.439 40.561 3.889 119.989 o
-1 11 20 814.472 835.445 17.073 2.752 o
-1 11 21 1382.740 1399.940 25.469 1.225 o
-1 11 22 62.007 65.490 4.280 61.821 o
-1 11 23 907.546 891.630 19.019 2.378 o
-1 11 24 161.199 166.909 6.181 22.349 o
-1 12 1 9.684 11.822 2.801 332.899 o
-1 12 2 783.436 862.405 16.574 2.819 o
-1 12 3 662.623 595.172 15.372 3.898 o
-1 12 4 478.556 450.107 12.202 6.004 o
-1 12 5 28.194 58.059 3.941 100.210 o
-1 12 6 691.519 639.608 14.087 3.694 o
-1 12 7 1180.140 1220.520 32.004 1.445 o
-1 12 8 159.109 191.838 6.558 21.172 o
-1 12 9 12.786 12.537 2.920 279.803 o
-1 12 10 1690.610 1672.730 35.853 0.864 o
-1 12 11 280.526 280.833 14.837 10.010 o
-1 12 12 163.638 185.138 10.312 18.639 o
-1 12 13 1117.480 1181.550 26.470 1.617 o
-1 12 14 38.875 37.363 3.821 100.612 o
-1 12 15 6.832 5.266 2.891 461.149 o
-1 12 16 0.401 1.318 3.317 816.245 o
-1 12 17 435.810 437.813 12.139 6.559 o
-1 12 18 21.037 15.878 2.883 199.586 o
-1 12 19 261.773 241.259 7.114 13.404 o
-1 12 20 8.608 9.038 3.373 334.274 o
-1 12 21 105.755 100.174 5.093 36.766 o
-1 12 22 3.030 0.664 2.611 874.100 o
-1 13 1 30.053 36.440 3.654 119.094 o
-1 13 2 470.474 487.698 11.030 5.987 o
-1 13 3 2596.580 2664.900 46.051 0.418 o
-1 13 4 106.003 91.116 4.727 38.311 o
-1 13 5 1.473 7.338 4.644 352.290 o
-1 13 6 926.963 962.022 22.603 2.180 o
-1 13 7 53.481 61.353 4.923 66.439 o
-1 13 8 1237.110 1246.520 27.497 1.423 o
-1 13 9 33.167 33.614 4.017 112.015 o
-1 13 10 3.948 3.659 3.643 471.788 o
-1 13 11 68.115 57.537 4.853 58.711 o
-1 13 12 125.380 110.484 8.098 28.196 o
-1 13 13 114.383 111.403 9.048 28.431 o
-1 13 14 185.534 183.577 10.539 17.154 o
-1 13 15 192.030 184.258 6.683 18.803 o
-1 13 16 144.372 159.817 8.229 22.867 o
-1 13 17 33.699 23.334 3.087 131.887 o
-1 13 18 76.377 80.814 4.852 49.256 o
-1 13 19 12.330 7.019 1.675 392.613 o
-1 13 20 76.336 58.174 4.450 55.374 o
-1 14 1 3236.800 3148.570 62.209 0.286 o
-1 14 2 454.354 446.729 15.347 5.967 o
-1 14 3 329.636 325.661 10.250 9.461 o
-1 14 4 1970.710 1978.010 40.317 0.666 o
-1 14 5 1139.220 1117.420 24.730 1.654 o
-1 14 6 0.349 4.090 3.051 800.283 o
-1 14 7 458.660 476.288 12.844 6.018 o
-1 14 8 52.237 53.427 3.734 75.655 o
-1 14 9 1925.450 1880.480 47.845 0.668 o
-1 14 10 329.183 325.531 9.759 9.560 o
-1 14 11 877.525 855.445 16.718 2.550 o
-1 14 12 251.652 262.871 9.073 12.844 o
-1 14 13 290.731 261.802 13.094 10.493 o
-1 14 14 60.254 44.340 3.427 73.778 o
-1 14 15 324.988 298.445 52.700 2.760 o
-1 14 16 69.582 68.487 6.256 50.797 o
-1 14 17 538.979 474.995 12.677 5.279 o
-1 15 1 128.483 139.800 11.420 22.209 o
-1 15 2 1838.510 1908.160 67.258 0.602 o
-1 15 3 175.409 184.322 12.320 16.576 o
-1 15 4 57.013 59.217 4.783 65.308 o
-1 15 5 2097.660 2181.720 81.761 0.459 o
-1 15 6 171.902 148.998 6.447 22.020 o
-1 15 7 786.584 756.383 21.427 2.832 o
-1 15 8 106.727 113.277 5.381 34.705 o
-1 15 9 478.486 498.300 12.400 5.745 o
-1 15 10 3078.380 2928.600 74.474 0.297 o
-1 15 11 37.638 36.975 2.811 110.314 o
-1 15 12 118.503 99.560 6.136 32.751 o
-1 15 13 515.138 503.560 14.042 5.261 o
-1 15 14 79.764 64.057 2.999 55.393 o
-1 16 1 0.616 3.727 3.334 695.337 o
-1 16 2 42.565 44.889 7.856 63.712 o
-1 16 3 6.011 5.015 2.270 581.613 o
-1 16 4 37.966 44.183 3.641 98.097 o
-1 16 5 113.280 109.614 5.796 33.220 o
-1 16 6 931.783 941.374 33.144 1.947 o
-1 16 7 647.682 593.671 14.294 4.032 o
-1 16 8 68.028 49.967 2.421 68.131 o
-1 16 9 947.032 813.366 25.537 2.227 o
-1 17 1 158.310 125.297 11.346 20.382 o
-1 17 2 235.777 201.407 9.657 14.540 o
-1 17 3 98.428 69.780 3.439 45.580 o
0 -17 3 0.612 1.206 2.247 1502.070 o
0 -17 4 488.902 325.349 13.245 6.479 o
0 -17 5 144.031 112.786 6.583 27.102 o
0 -17 6 562.357 383.280 15.268 5.272 o
0 -17 8 27.520 15.129 2.814 170.077 o
0 -16 1 355.338 328.505 15.486 7.962 o
0 -16 2 178.226 178.691 6.543 20.127 o
0 -16 3 656.905 664.364 15.663 3.739 o
0 -16 4 57.958 63.147 4.767 63.434 o
0 -16 5 28.404 20.131 2.641 158.880 o
0 -16 6 1300.870 1252.920 25.866 1.369 o
0 -16 7 257.103 249.021 6.579 13.566 o
0 -16 8 7.440 5.979 3.849 340.397 o
0 -16 9 185.859 143.613 18.410 13.045 o
0 -16 10 10.260 4.891 2.269 430.649 o
0 -16 11 20.858 22.419 2.228 194.481 o
0 -16 12 28.923 26.595 2.317 149.229 o
0 -16 13 4.579 5.521 1.986 698.270 o
0 -16 14 73.476 55.998 5.589 53.966 o
0 -16 15 47.688 41.975 3.284 88.564 o
0 -16 16 2.733 0.476 1.958 1255.080 o
0 -16 17 0.372 0.730 2.098 1870.550 o
0 -15 1 1167.730 1108.560 33.928 1.494 o
0 -15 2 11.747 16.233 3.406 250.484 o
0 -15 3 415.715 424.321 13.065 6.788 o
0 -15 4 193.142 206.279 10.516 16.107 o
0 -15 5 190.895 215.446 8.158 17.164 o
0 -15 6 3642.900 3679.760 77.988 0.220 o
0 -15 7 18.665 17.679 4.629 164.642 o
0 -15 8 356.886 305.343 11.632 8.859 o
0 -15 9 294.155 298.807 9.177 10.882 o
0 -15 10 5.293 8.483 3.168 426.933 o
0 -15 11 38.954 61.509 6.136 71.038 o
0 -15 12 65.775 81.160 4.851 53.831 o
0 -15 13 45.702 48.688 4.014 83.151 o
0 -15 14 63.624 84.185 4.689 54.582 o
0 -15 15 13.747 11.406 2.398 297.578 o
0 -15 16 69.787 80.219 4.989 51.834 o
0 -15 17 20.893 20.418 3.398 177.268 o
0 -15 18 55.660 51.424 3.353 74.974 o
0 -15 19 120.396 129.649 4.713 31.192 o
0 -15 20 116.947 98.945 4.866 34.676 o
0 -15 21 209.322 173.589 28.867 7.539 o
0 -14 1 164.516 160.425 15.996 15.146 o
0 -14 2 56.916 56.736 5.253 64.270 o
0 -14 3 331.345 381.992 12.182 8.521 o
0 -14 4 2209.650 2275.070 45.783 0.537 o
0 -14 5 4.181 4.846 2.695 605.841 o
0 -14 6 36.630 41.322 4.442 96.161 o
0 -14 7 2.205 3.474 3.598 547.936 o
0 -14 8 62.598 58.759 4.183 63.910 o
0 -14 9 1324.870 1324.520 34.790 1.225 o
0 -14 10 972.642 988.759 19.719 2.114 o
0 -14 11 29.641 20.945 3.196 145.833 o
0 -14 12 2084.480 2204.060 31.422 0.618 o
0 -14 13 1057.520 1094.430 16.057 1.907 o
0 -14 14 493.945 486.385 8.690 5.909 o
0 -14 15 355.878 364.998 8.287 8.800 o
0 -14 16 32.683 30.593 3.197 124.281 o
0 -14 17 611.870 634.489 18.437 3.906 o
0 -14 18 1.354 2.256 2.615 979.594 o
0 -14 19 843.023 882.247 18.876 2.558 o
0 -14 20 530.356 578.385 11.471 5.002 o
0 -14 21 237.809 235.382 8.316 14.183 o
0 -14 22 659.911 649.258 15.605 3.764 o
0 -14 23 166.218 182.622 6.881 20.769 o
0 -14 24 625.346 571.423 38.670 2.756 o
0 -14 25 36.397 33.902 3.424 110.963 o
0 -13 1 1.377 4.627 3.696 537.912 o
0 -13 2 553.229 573.117 24.021 4.002 o
0 -13 3 641.942 652.104 18.637 3.703 o
0 -13 4 4716.290 4695.440 96.209 0.139 o
0 -13 5 6833.490 6948.630 151.926 0.067 o
0 -13 6 126.883 175.157 6.838 25.102 o
0 -13 7 9.062 22.657 2.783 270.804 o
0 -13 8 74.023 65.284 3.316 57.461 o
0 -13 9 419.394 454.711 10.481 6.822 o
0 -13 10 11643.100 12040.800 156.850 0.026 o
0 -13 11 1300.410 1325.370 21.014 1.374 o
0 -13 12 9.905 22.905 2.975 253.666 o
0 -13 13 2352.450 2457.720 34.641 0.506 o
0 -13 14 1417.330 1496.190 25.238 1.157 o
0 -13 15 1946.640 2034.090 36.262 0.678 o
0 -13 16 341.756 361.603 9.730 8.915 o
0 -13 17 751.474 770.784 14.616 3.140 o
0 -13 18 881.424 907.144 15.106 2.502 o
0 -13 19 13.882 16.315 2.563 261.845 o
0 -13 20 48.076 53.067 3.318 81.667 o
0 -13 21 73.128 74.448 3.469 55.213 o
0 -13 22 59.398 65.332 3.180 66.936 o
0 -13 23 419.185 397.691 8.812 7.378 o
0 -13 24 431.974 458.325 9.235 6.747 o
0 -13 25 490.865 511.240 10.909 5.673 o
0 -13 26 16.610 9.161 1.951 292.008 o
0 -12 1 342.233 377.894 8.421 8.926 o
0 -12 2 64.834 81.358 6.506 49.323 o
0 -12 3 3299.360 3350.600 65.477 0.268 o
0 -12 4 489.305 472.476 10.151 5.935 o
0 -12 5 306.729 304.774 7.932 10.695 o
0 -12 6 379.131 346.968 8.563 8.492 o
0 -12 7 630.686 645.724 11.585 4.094 o
0 -12 8 921.818 888.116 12.229 2.468 o
0 -12 9 3959.350 3943.650 45.621 0.210 o
0 -12 10 72.423 87.930 3.766 51.754 o
0 -12 11 1677.470 1758.530 22.475 0.908 o
0 -12 12 258.325 253.827 5.887 13.572 o
0 -12 13 119.847 107.588 4.225 33.838 o
0 -12 14 2310.350 2412.370 44.153 0.502 o
0 -12 15 445.223 498.841 10.939 6.207 o
0 -12 16 1291.340 1381.960 29.391 1.282 o
0 -12 17 440.598 528.791 19.669 5.257 o
0 -12 18 31.329 34.767 3.617 118.518 o
0 -12 19 102.743 131.095 5.508 33.533 o
0 -12 20 180.336 190.646 6.294 19.614 o
0 -12 21 701.949 730.250 10.969 3.531 o
0 -12 22 934.835 1005.740 18.715 2.192 o
0 -12 23 126.475 135.075 4.587 29.812 o
0 -12 24 299.552 332.468 6.608 10.728 o
0 -12 25 88.399 97.625 3.138 44.625 o
0 -12 26 7.719 4.632 1.704 582.239 o
0 -12 27 228.763 208.570 5.544 16.145 o
0 -12 28 190.983 186.797 11.341 16.279 o
0 -12 29 2.831 2.077 2.393 901.051 o
0 -11 1 1689.400 1731.310 24.641 0.901 o
0 -11 2 394.346 423.244 7.808 7.655 o
0 -11 3 3288.400 3280.280 46.521 0.288 o
0 -11 4 1737.770 1739.480 22.536 0.880 o
0 -11 5 1058.460 1077.330 14.733 1.935 o
0 -11 6 461.480 439.654 7.736 6.603 o
0 -11 7 4.873 2.664 1.954 795.543 o
0 -11 8 9.005 12.363 1.984 390.187 o
0 -11 9 1048.990 1093.780 15.707 1.926 o
0 -11 10 182.286 189.884 5.040 20.037 o
0 -11 11 6.621 10.380 2.150 466.987 o
0 -11 12 0.460 4.765 2.453 1008.480 o
0 -11 13 255.382 249.945 6.549 13.624 o
0 -11 14 17.381 18.294 3.008 211.832 o
0 -11 15 284.859 283.267 7.603 11.720 o
0 -11 16 10.979 8.947 2.458 356.214 o
0 -11 17 117.168 143.775 5.109 30.180 o
0 -11 18 180.576 211.881 6.087 18.898 o
0 -11 19 88.312 86.649 4.692 44.153 o
0 -11 20 457.743 496.676 10.185 6.140 o
0 -11 21 80.903 96.760 5.724 42.917 o
0 -11 22 642.583 639.644 12.370 4.014 o
0 -11 23 265.476 281.129 8.428 12.207 o
0 -11 24 67.819 79.630 3.504 56.535 o
0 -11 25 211.591 212.148 5.125 17.163 o
0 -11 26 29.409 33.099 2.700 134.169 o
0 -11 27 656.527 653.530 10.819 3.954 o
0 -11 28 84.437 101.826 3.786 44.385 o
0 -11 29 288.163 276.863 9.274 11.350 o
0 -11 30 6.600 4.592 2.112 586.272 o
0 -10 1 264.568 253.345 5.164 13.470 o
0 -10 2 214.445 210.338 5.661 16.881 o
0 -10 3 67.213 56.249 2.384 66.507 o
0 -10 4 3384.740 3325.640 36.203 0.283 o
0 -10 5 3410.110 3244.650 37.389 0.284 o
0 -10 6 173.677 197.281 5.924 20.050 o
0 -10 7 688.638 752.170 11.531 3.526 o
0 -10 8 5243.130 5036.060 61.148 0.128 o
0 -10 9 4656.640 4790.030 81.696 0.145 o
0 -10 10 9914.980 9650.210 112.488 0.038 o
0 -10 11 1910.930 1882.890 26.651 0.751 o
0 -10 12 76.122 78.337 3.859 52.059 o
0 -10 13 5750.380 5579.070 76.664 0.106 o
0 -10 14 0.680 7.711 2.381 834.008 o
0 -10 15 123.404 117.224 4.879 31.609 o
0 -10 16 4640.330 4814.510 61.731 0.151 o
0 -10 17 103.167 110.637 4.601 36.770 o
0 -10 18 1079.450 1083.240 17.851 1.858 o
0 -10 19 153.521 134.984 5.704 25.203 o
0 -10 20 855.501 969.733 18.293 2.425 o
0 -10 21 692.539 674.149 12.704 3.655 o
0 -10 22 141.518 142.115 5.259 26.583 o
0 -10 23 189.429 198.895 5.412 18.998 o
0 -10 24 200.981 225.414 5.592 17.263 o
0 -10 25 709.639 734.816 14.160 3.393 o
0 -10 26 15.839 19.173 2.938 221.346 o
0 -10 27 87.872 70.666 3.697 48.994 o
0 -10 28 1116.980 1210.670 19.948 1.678 o
0 -10 29 131.775 130.789 7.278 26.852 o
0 -10 30 11.747 14.971 1.931 319.371 o
0 -10 31 161.072 185.445 5.540 21.839 o
0 -10 32 186.671 180.111 8.449 18.416 o
0 -9 1 44.764 48.721 8.798 55.962 o
0 -9 2 3268.190 3300.410 53.925 0.283 o
0 -9 3 977.913 987.934 21.575 2.071 o
0 -9 4 474.239 424.011 13.347 6.082 o
0 -9 5 4339.510 3994.960 61.355 0.182 o
0 -9 6 13126.600 12990.600 164.794 0.022 o
0 -9 7 4822.400 4628.770 60.113 0.148 o
0 -9 8 1524.530 1469.170 22.274 1.102 o
0 -9 9 1172.850 1180.660 18.773 1.633 o
0 -9 10 217.833 198.273 5.612 17.056 o
0 -9 11 16136.000 16230.100 193.655 0.014 o
0 -9 12 1998.180 1957.920 34.363 0.679 o
0 -9 13 1862.830 1845.280 24.080 0.787 o
0 -9 14 3664.590 3700.860 47.996 0.237 o
0 -9 15 4678.810 4607.080 54.731 0.156 o
0 -9 16 1103.610 1101.070 17.368 1.809 o
0 -9 17 2094.600 2034.550 32.845 0.638 o
0 -9 18 127.265 170.831 7.216 24.986 o
0 -9 19 2709.630 2844.650 50.093 0.380 o
0 -9 20 1284.770 1317.940 26.299 1.348 o
0 -9 21 7108.560 7374.480 120.541 0.066 o
0 -9 22 185.923 181.385 7.589 18.893 o
0 -9 23 123.398 113.871 6.047 30.694 o
0 -9 24 684.365 778.008 13.774 3.421 o
0 -9 25 627.034 660.228 13.424 4.000 o
0 -9 26 2173.690 2455.230 38.375 0.542 o
0 -9 27 1.040 4.997 2.468 910.670 o
0 -9 28 22.276 19.114 2.856 184.543 o
0 -9 29 335.943 391.344 10.975 8.549 o
0 -9 30 120.445 143.403 5.759 29.080 o
0 -9 31 197.121 202.791 5.781 18.180 o
0 -9 32 566.957 593.909 13.188 4.582 o
0 -9 33 5.053 2.633 1.714 837.018 o
0 -8 1 454.649 354.492 21.833 5.608 o
0 -8 2 214.332 146.425 29.358 7.479 o
0 -8 3 6.220 24.257 6.323 152.825 o
0 -8 4 4779.580 4317.740 168.308 0.113 o
0 -8 5 568.533 592.970 43.183 2.606 o
0 -8 6 1195.080 1102.070 45.359 1.298 o
0 -8 7 503.474 512.252 27.662 4.109 o
0 -8 8 499.839 639.457 44.280 2.641 o
0 -8 9 117.024 84.723 12.669 24.412 o
0 -8 10 447.890 370.711 23.635 5.357 o
0 -8 11 1618.550 1614.870 47.181 0.846 o
0 -8 12 3498.900 3297.510 58.069 0.259 o
0 -8 13 3965.960 3922.230 50.529 0.209 o
0 -8 14 2011.860 2014.930 25.987 0.687 o
0 -8 15 1038.600 1036.590 16.148 1.992 o
0 -8 16 1718.510 1781.100 25.189 0.870 o
0 -8 17 4035.690 4044.070 56.783 0.198 o
0 -8 18 7.696 14.425 3.064 327.318 o
0 -8 19 156.583 177.620 5.824 22.487 o
0 -8 20 210.589 230.919 6.760 16.149 o
0 -8 21 779.017 766.361 14.181 3.059 o
0 -8 22 321.749 389.052 9.022 9.150 o
0 -8 23 8.113 12.507 3.465 309.363 o
0 -8 24 420.669 423.118 10.336 7.029 o
0 -8 25 1100.120 1183.420 19.217 1.730 o
0 -8 26 2.042 5.829 2.795 680.907 o
0 -8 27 105.232 115.574 4.552 35.779 o
0 -8 28 398.213 426.190 9.874 7.372 o
0 -8 29 193.261 185.908 7.327 18.355 o
0 -8 30 412.888 418.453 13.818 6.770 o
0 -8 31 80.524 88.472 6.122 43.482 o
0 -8 32 292.224 324.097 11.111 10.177 o
0 -8 33 58.955 46.376 2.623 76.719 o
0 -8 34 409.171 360.691 9.858 7.706 o
0 -7 1 25.739 30.567 4.558 124.601 o
0 -7 2 118.760 111.114 15.314 19.671 o
0 -7 3 450.207 393.517 17.623 6.015 o
0 -7 4 1188.810 1055.350 39.682 1.412 o
0 -7 5 642.433 855.574 85.259 1.018 o
0 -7 6 1431.910 1515.250 50.983 0.934 o
0 -7 7 1803.910 2172.710 108.249 0.411 o
0 -7 8 448.387 586.186 53.540 2.256 o
0 -7 9 538.926 537.030 26.544 3.966 o
0 -7 10 3743.000 3798.230 104.292 0.192 o
0 -7 11 26.808 45.594 11.770 48.014 o
0 -7 12 1271.730 1354.980 65.240 0.915 o
0 -7 13 58.551 83.932 14.198 28.560 o
0 -7 14 1105.800 1127.500 23.325 1.712 o
0 -7 15 8987.280 8739.630 115.337 0.045 o
0 -7 16 673.269 621.508 11.022 3.944 o
0 -7 17 955.317 955.111 16.026 2.248 o
0 -7 18 0.136 2.867 2.929 942.472 o
0 -7 19 493.319 536.864 12.996 5.384 o
0 -7 20 849.873 801.033 17.450 2.688 o
0 -7 21 21.051 22.991 3.500 168.789 o
0 -7 22 1.953 5.133 2.736 727.529 o
0 -7 23 2253.430 2151.340 34.468 0.569 o
0 -7 24 424.899 488.263 10.230 6.565 o
0 -7 25 152.353 146.282 4.665 25.334 o
0 -7 26 176.642 169.602 4.801 21.485 o
0 -7 27 145.344 138.352 5.311 26.291 o
0 -7 28 104.336 104.770 4.745 37.011 o
0 -7 29 385.013 372.540 10.174 7.964 o
0 -7 30 940.112 1073.480 20.313 2.084 o
0 -7 31 18.216 16.450 2.934 214.364 o
0 -7 32 51.026 63.383 5.172 66.369 o
0 -7 33 379.488 459.098 11.245 7.254 o
0 -7 34 196.848 200.208 4.870 18.609 o
0 -7 35 749.942 622.632 21.885 3.164 o
0 -6 1 2412.800 2203.960 69.226 0.441 o
0 -6 2 3472.720 3657.480 76.481 0.233 o
0 -6 3 4123.020 4136.740 102.600 0.168 o
0 -6 4 1192.560 1296.300 42.801 1.254 o
0 -6 5 139.972 130.324 16.955 16.230 o
0 -6 6 3952.800 3715.750 139.446 0.159 o
0 -6 7 5016.960 5214.470 205.940 0.088 o
0 -6 8 78.039 78.879 11.084 33.201 o
0 -6 9 2045.010 2007.920 60.287 0.566 o
0 -6 10 235.281 298.957 23.479 8.062 o
0 -6 11 1348.310 1765.640 74.798 0.720 o
0 -6 12 931.763 1001.290 49.099 1.527 o
0 -6 13 1093.600 1076.970 52.001 1.288 o
0 -6 14 44.161 29.166 8.521 63.340 o
0 -6 15 39.260 21.001 7.180 80.939 o
0 -6 16 711.387 648.955 26.796 3.028 o
0 -6 17 35.566 35.057 2.872 115.826 o
0 -6 18 1886.640 1856.300 26.058 0.768 o
0 -6 19 2211.250 2147.180 28.721 0.594 o
0 -6 20 108.976 93.359 4.598 37.456 o
0 -6 21 1012.990 891.541 17.777 2.163 o
0 -6 22 317.430 302.267 8.071 10.419 o
0 -6 23 7.482 10.352 2.791 388.589 o
0 -6 24 81.758 78.466 4.266 48.823 o
0 -6 25 152.274 152.820 5.618 24.370 o
0 -6 26 670.119 612.388 10.375 4.008 o
0 -6 27 111.723 88.282 3.784 38.361 o
0 -6 28 388.890 352.051 13.641 7.578 o
0 -6 29 82.534 61.860 4.431 51.630 o
0 -6 30 71.726 68.241 3.784 56.842 o
0 -6 31 98.199 101.411 4.213 39.695 o
0 -6 32 195.292 176.101 6.055 19.143 o
0 -6 33 12.812 14.652 2.277 293.652 o
0 -6 34 276.297 293.732 9.435 11.415 o
0 -6 35 45.378 47.337 4.439 81.825 o
0 -5 1 6685.150 6419.310 123.623 0.076 o
0 -5 2 640.502 657.962 19.081 3.674 o
0 -5 3 930.139 795.107 22.182 2.368 o
0 -5 4 18905.200 18312.400 276.286 0.011 o
0 -5 5 843.187 883.036 29.709 2.260 o
0 -5 6 4846.050 4199.670 102.528 0.141 o
0 -5 7 7541.370 7252.130 171.458 0.057 o
0 -5 8 908.961 901.683 30.176 2.097 o
0 -5 9 5002.040 5409.680 200.898 0.088 o
0 -5 10 355.472 448.279 53.199 2.537 o
0 -5 11 2294.470 2537.080 160.043 0.230 o
0 -5 12 4620.800 4058.740 142.518 0.132 o
0 -5 13 568.410 344.954 22.669 4.691 o
0 -5 14 35.875 23.558 3.386 123.174 o
0 -5 15 3302.130 3105.590 108.042 0.232 o
0 -5 16 4876.520 4576.770 146.958 0.117 o
0 -5 17 1627.500 1402.740 49.002 0.880 o
0 -5 18 3.219 8.929 2.987 508.312 o
0 -5 19 608.350 636.642 12.515 4.214 o
0 -5 20 3127.240 3168.090 48.208 0.309 o
0 -5 21 3948.970 3877.070 53.249 0.210 o
0 -5 22 7052.830 7151.260 103.633 0.069 o
0 -5 23 53.574 64.098 4.197 68.315 o
0 -5 24 1120.120 1104.760 20.059 1.750 o
0 -5 25 390.676 360.401 9.176 8.093 o
0 -5 26 139.317 125.159 4.763 28.448 o
0 -5 27 3071.410 3117.230 40.340 0.325 o
0 -5 28 226.878 218.302 5.990 15.854 o
0 -5 29 690.004 699.623 23.158 3.186 o
0 -5 30 965.689 1051.300 36.276 1.740 o
0 -5 31 210.136 222.594 6.145 16.618 o
0 -5 32 2.119 6.860 1.973 854.344 o
0 -5 33 219.918 189.285 6.306 16.967 o
0 -5 34 0.741 0.692 2.170 1628.340 o
0 -5 35 386.298 415.742 30.590 4.697 o
0 -4 1 5114.730 5079.830 97.269 0.122 o
0 -4 2 90.206 173.205 5.917 31.451 o
0 -4 3 8238.340 7625.960 124.092 0.054 o
0 -4 4 17625.900 17209.800 314.435 0.012 o
0 -4 5 207.347 160.507 11.893 15.789 o
0 -4 6 1817.400 1940.260 39.547 0.731 o
0 -4 7 9896.180 8986.150 165.435 0.038 o
0 -4 8 599.155 550.376 21.012 4.036 o
0 -4 9 5570.870 5569.180 142.710 0.095 o
0 -4 10 459.160 731.067 24.718 4.026 o
0 -4 11 11985.600 12795.400 291.696 0.021 o
0 -4 12 1094.900 1266.210 50.514 1.236 o
0 -4 13 6428.140 6519.590 213.830 0.064 o
0 -4 14 26235.400 26658.000 689.386 0.005 o
0 -4 15 4679.070 4442.150 102.639 0.142 o
0 -4 16 3417.580 3431.750 111.780 0.211 o
0 -4 17 2379.200 2321.630 77.859 0.414 o
0 -4 18 1795.120 1651.560 57.738 0.703 o
0 -4 19 3048.450 2932.100 70.331 0.306 o
0 -4 20 80.421 120.396 7.814 35.720 o
0 -4 21 9053.810 9002.360 242.761 0.037 o
0 -4 22 3931.000 3956.790 100.329 0.182 o
0 -4 23 324.629 361.265 18.456 7.584 o
0 -4 24 1699.480 1740.540 37.145 0.836 o
0 -4 25 47.547 45.285 3.639 84.974 o
0 -4 26 245.558 295.973 7.312 12.924 o
0 -4 27 187.929 201.041 6.024 18.785 o
0 -4 28 1876.590 1882.270 28.024 0.761 o
0 -4 29 110.374 114.787 5.412 33.755 o
0 -4 30 1365.120 1346.950 23.617 1.279 o
0 -4 31 13.608 13.834 2.385 284.786 o
0 -4 32 79.083 88.355 4.815 46.838 o
0 -4 33 725.132 735.053 17.284 3.225 o
0 -4 34 14.121 16.226 2.231 270.866 o
0 -4 35 286.129 282.639 8.993 11.390 o
0 -4 36 137.810 92.525 5.394 30.746 o
0 -3 1 5444.280 5158.870 82.342 0.116 o
0 -3 2 11229.600 10932.600 171.962 0.029 o
0 -3 3 265.496 261.416 11.346 11.719 o
0 -3 4 1180.990 1249.130 22.683 1.538 o
0 -3 5 2529.870 2589.220 63.883 0.403 o
0 -3 6 1999.950 1826.250 44.480 0.666 o
0 -3 7 10951.100 10811.500 242.805 0.028 o
0 -3 8 1405.890 1202.430 33.160 1.224 o
0 -3 9 2983.670 3048.300 74.212 0.301 o
0 -3 10 91.698 72.130 7.842 38.684 o
0 -3 11 3289.280 3268.030 64.419 0.273 o
0 -3 12 43.255 49.095 7.186 66.027 o
0 -3 13 85.954 67.620 4.976 47.806 o
0 -3 14 4664.080 4385.870 82.073 0.152 o
0 -3 15 665.936 786.491 30.418 2.786 o
0 -3 16 11486.100 11575.000 214.701 0.026 o
0 -3 17 358.967 306.712 11.290 8.865 o
0 -3 18 1869.780 1906.270 67.777 0.592 o
0 -3 19 3046.990 2645.810 89.346 0.293 o
0 -3 20 919.881 763.880 18.528 2.519 o
0 -3 21 7433.590 7684.270 123.960 0.061 o
0 -3 22 502.835 420.104 10.996 6.005 o
0 -3 23 1345.420 1424.740 27.250 1.233 o
0 -3 24 5091.960 5065.520 75.002 0.129 o
0 -3 25 326.814 332.991 8.657 9.713 o
0 -3 26 1338.800 1360.200 23.523 1.298 o
0 -3 27 450.968 442.486 10.206 6.528 o
0 -3 28 368.194 353.629 8.743 8.613 o
0 -3 29 836.191 891.380 14.060 2.671 o
0 -3 30 111.088 109.654 4.352 35.352 o
0 -3 31 1585.050 1641.810 22.350 0.999 o
0 -3 32 658.844 617.210 11.718 4.010 o
0 -3 33 62.636 54.711 3.435 67.701 o
0 -3 34 482.675 459.992 28.160 4.308 o
0 -3 35 228.902 238.782 6.778 14.996 o
0 -3 36 212.942 194.078 8.948 16.149 o
0 -2 1 1502.920 1519.630 35.888 1.013 o
0 -2 2 143.152 128.884 4.843 27.562 o
0 -2 3 12413.600 11680.500 214.350 0.024 o
0 -2 4 10418.900 10157.500 184.814 0.032 o
0 -2 5 8.851 12.803 2.971 327.849 o
0 -2 6 72819.300 69536.600 1521.590 0.001 o
0 -2 7 15963.400 15507.800 343.852 0.013 o
0 -2 8 16786.200 16298.600 403.345 0.012 o
0 -2 9 933.516 927.424 21.121 2.234 o
0 -2 10 5282.600 5148.200 84.909 0.120 o
0 -2 11 738.472 610.429 14.258 3.536 o
0 -2 12 3259.380 3105.220 59.583 0.288 o
0 -2 13 1046.880 1092.200 34.524 1.639 o
0 -2 14 743.761 937.104 31.738 2.351 o
0 -2 15 35.148 17.295 3.633 129.813 o
0 -2 16 9.601 18.477 5.813 166.371 o
0 -2 17 6013.920 5786.230 114.006 0.092 o
0 -2 18 1186.710 1163.410 29.716 1.499 o
0 -2 19 6949.360 6659.830 158.917 0.066 o
0 -2 20 125.707 110.733 6.435 30.133 o
0 -2 21 1122.430 1031.390 21.973 1.778 o
0 -2 22 645.550 635.338 15.618 3.871 o
0 -2 23 220.385 221.427 8.554 15.227 o
0 -2 24 26.111 48.878 3.901 112.036 o
0 -2 25 2336.970 2500.400 36.179 0.502 o
0 -2 26 1438.720 1465.020 23.024 1.167 o
0 -2 27 249.779 267.359 7.073 13.372 o
0 -2 28 1222.990 1284.520 20.417 1.488 o
0 -2 29 1626.730 1608.680 26.594 0.964 o
0 -2 30 39.052 33.171 3.247 108.131 o
0 -2 31 107.512 105.621 3.804 37.224 o
0 -2 32 354.364 382.370 9.460 8.510 o
0 -2 33 283.045 309.390 7.676 11.357 o
0 -2 34 8.097 12.135 2.471 380.726 o
0 -2 35 1257.690 1243.340 30.386 1.371 o
0 -2 36 17.460 13.030 1.900 262.213 o
0 -1 1 79.091 83.311 5.241 46.844 o
0 -1 2 11653.100 10262.200 319.928 0.024 o
0 -1 3 28935.400 28862.400 1159.090 0.003 o
0 -1 4 64872.500 60538.900 1878.200 0.001 o
0 -1 5 9880.840 9974.450 315.574 0.028 o
0 -1 6 16934.500 17189.300 379.463 0.012 o
0 -1 7 68372.000 66691.200 2431.760 0.001 o
0 -1 8 443.480 415.104 24.779 5.076 o
0 -1 9 5229.310 4931.440 116.322 0.115 o
0 -1 10 4699.150 5226.800 123.719 0.122 o
0 -1 11 9449.950 9773.020 224.649 0.035 o
0 -1 12 33235.200 36466.300 810.204 0.003 o
0 -1 13 31940.000 33549.500 1057.960 0.003 o
0 -1 14 17736.900 17685.400 569.060 0.009 o
0 -1 15 26644.900 27330.500 870.108 0.004 o
0 -1 16 2024.030 2229.850 92.051 0.432 o
0 -1 17 58.817 41.643 11.535 40.060 o
0 -1 18 2112.610 2075.560 89.941 0.438 o
0 -1 19 531.554 522.976 37.335 3.175 o
0 -1 20 3313.700 3113.530 49.430 0.291 o
0 -1 21 4022.470 3978.970 69.710 0.195 o
0 -1 22 3891.260 3910.960 61.217 0.208 o
0 -1 23 744.274 750.260 16.081 3.163 o
0 -1 24 11.118 9.852 3.752 271.874 o
0 -1 25 1081.380 1009.210 24.302 1.825 o
0 -1 26 63.612 62.533 4.818 59.974 o
0 -1 27 75.583 78.617 4.687 50.419 o
0 -1 28 122.428 137.855 5.582 29.371 o
0 -1 29 150.262 157.791 5.711 24.255 o
0 -1 30 1.065 0.215 2.874 1027.360 o
0 -1 31 35.557 31.687 3.864 110.770 o
0 -1 32 52.237 58.030 3.342 75.123 o
0 -1 33 93.475 115.069 4.428 38.852 o
0 -1 34 198.822 192.772 8.701 17.106 o
0 -1 35 17.726 15.046 4.243 184.932 o
0 -1 36 135.879 117.796 4.361 29.863 o
0 0 2 0.199 19.244 2.317 518.834 o
0 0 3 34526.200 33072.800 1027.530 0.003 o
0 0 4 104.566 122.010 7.696 31.093 o
0 0 5 60602.500 57694.800 1792.340 0.001 o
0 0 6 30191.100 30831.400 681.090 0.004 o
0 0 7 8969.110 8813.660 270.934 0.036 o
0 0 8 42386.700 40894.000 1212.790 0.002 o
0 0 9 9.585 30.539 5.429 154.570 o
0 0 10 147.812 245.685 12.221 16.473 o
0 0 11 6.596 -1.820 7.028 173.475 o
0 0 12 34.647 32.178 10.616 54.123 o
0 0 13 21770.000 22694.600 511.942 0.007 o
0 0 14 8107.370 8434.000 200.930 0.046 o
0 0 15 10723.800 10851.500 496.542 0.019 o
0 0 16 602.351 684.788 29.266 3.207 o
0 0 17 363.236 335.383 12.798 8.262 o
0 0 18 851.177 956.418 26.463 2.255 o
0 0 19 1388.860 1287.480 24.483 1.278 o
0 0 20 1849.470 1737.500 27.188 0.808 o
0 0 21 6.813 13.766 2.645 377.961 o
0 0 22 286.333 274.830 8.213 11.678 o
0 0 23 111.827 110.895 5.613 33.608 o
0 0 24 165.632 178.205 6.347 21.318 o
0 0 25 676.339 661.622 13.590 3.733 o
0 0 26 738.091 735.665 16.699 3.194 o
0 0 27 36.853 39.002 3.892 101.957 o
0 0 28 24.801 30.259 3.191 146.489 o
0 0 29 240.071 257.186 6.736 14.073 o
0 0 30 50.763 49.274 3.589 79.667 o
0 0 31 3.027 3.593 2.741 704.013 o
0 0 32 72.212 76.979 6.228 48.117 o
0 0 33 141.612 140.401 4.923 26.924 o
0 0 34 220.064 201.156 6.044 16.697 o
0 0 35 137.900 116.355 6.346 27.933 o
0 1 0 295.154 328.407 12.595 9.718 o
0 1 1 40033.300 35077.200 1089.070 0.002 o
0 1 2 233.891 231.073 10.533 13.647 o
0 1 3 17919.600 17523.600 545.558 0.009 o
0 1 4 8023.860 7638.380 240.666 0.045 o
0 1 5 2038.360 1992.080 46.493 0.620 o
0 1 6 6760.460 6756.350 283.552 0.050 o
0 1 7 18374.800 18255.200 326.505 0.011 o
0 1 8 6816.420 7000.810 160.882 0.066 o
0 1 9 177.409 226.186 16.643 12.960 o
0 1 10 71.896 115.942 13.172 26.920 o
0 1 11 3594.550 3614.310 128.166 0.184 o
0 1 12 10808.600 11365.700 370.739 0.022 o
0 1 13 9590.670 10416.700 342.914 0.027 o
0 1 14 1221.930 1315.970 43.684 1.211 o
0 1 15 2490.170 2571.350 73.547 0.389 o
0 1 16 36.484 38.996 9.361 59.414 o
0 1 17 811.402 742.590 21.830 2.764 o
0 1 18 657.309 558.838 18.438 3.867 o
0 1 19 368.657 385.354 9.523 8.216 o
0 1 20 788.049 740.372 28.782 2.586 o
0 1 21 352.533 312.050 9.237 9.281 o
0 1 22 473.617 494.575 11.782 5.861 o
0 1 23 2694.850 2721.290 48.051 0.394 o
0 1 24 51.844 47.229 4.177 76.878 o
0 1 25 344.722 375.574 10.825 8.555 o
0 1 26 772.216 810.127 17.617 2.911 o
0 1 27 201.858 208.641 7.116 17.164 o
0 1 28 97.080 100.332 6.279 37.006 o
0 1 29 66.099 66.392 4.358 58.898 o
0 1 30 165.724 165.510 5.629 22.296 o
0 1 31 6.980 6.381 2.442 491.232 o
0 1 32 746.920 762.888 15.218 3.155 o
0 1 33 0.178 0.710 2.138 1914.860 o
0 1 34 17.653 16.624 2.183 237.003 o
0 2 1 50365.100 44693.300 1389.360 0.001 o
0 2 2 3675.390 3515.330 114.956 0.193 o
0 2 3 8552.630 8805.390 279.553 0.037 o
0 2 4 30270.500 28541.700 891.509 0.003 o
0 2 5 110.613 98.641 9.072 29.921 o
0 2 6 1835.510 1779.490 64.277 0.636 o
0 2 7 11027.600 10009.100 752.208 0.012 o
0 2 8 293.912 289.433 13.610 9.940 o
0 2 9 7722.250 7249.830 250.308 0.047 o
0 2 10 252.404 253.844 12.471 11.881 o
0 2 11 450.176 495.905 16.019 5.698 o
0 2 12 1222.110 1098.520 30.645 1.484 o
0 2 13 422.710 403.148 21.653 5.700 o
0 2 14 979.080 1010.510 46.120 1.537 o
0 2 15 770.841 890.441 51.158 1.712 o
0 2 16 20.415 11.383 3.966 188.297 o
0 2 17 6155.970 6614.970 160.824 0.075 o
0 2 18 6718.580 6831.970 108.797 0.074 o
0 2 19 2758.690 2673.630 37.774 0.402 o
0 2 20 224.987 268.725 11.267 12.989 o
0 2 21 1422.950 1367.970 23.533 1.218 o
0 2 22 76.539 83.004 4.886 48.677 o
0 2 23 3696.420 3767.230 65.291 0.223 o
0 2 24 483.765 492.047 11.313 5.808 o
0 2 25 268.293 282.911 8.118 12.156 o
0 2 26 2018.880 2033.780 32.058 0.665 o
0 2 27 1315.120 1360.270 24.866 1.310 o
0 2 28 465.141 515.909 12.083 5.815 o
0 2 29 155.043 154.114 5.594 24.004 o
0 2 30 112.459 119.145 4.674 33.720 o
0 2 31 28.161 31.074 3.281 134.211 o
0 2 32 218.792 227.627 6.429 15.903 o
0 2 33 273.408 256.688 7.361 12.610 o
0 2 34 12.176 12.395 1.678 342.850 o
0 3 0 5863.800 5331.040 122.373 0.097 o
0 3 1 5365.120 5134.860 116.899 0.110 o
0 3 2 4045.280 3502.550 99.101 0.188 o
0 3 3 18186.000 17467.600 387.590 0.011 o
0 3 4 359.822 321.574 12.016 8.581 o
0 3 5 536.406 613.877 131.848 0.528 o
0 3 6 23.789 51.174 5.381 99.115 o
0 3 7 55.641 23.179 3.579 88.784 o
0 3 8 20365.400 20110.400 415.056 0.008 o
0 3 9 1849.870 1750.630 47.426 0.720 o
0 3 10 417.168 383.882 11.629 7.208 o
0 3 11 663.541 770.881 26.225 3.012 o
0 3 12 151.400 196.707 8.102 20.655 o
0 3 13 6687.590 7170.700 183.447 0.063 o
0 3 14 319.506 289.609 12.539 9.620 o
0 3 15 1745.570 1696.320 32.406 0.847 o
0 3 16 230.755 190.874 7.785 15.771 o
0 3 17 24.548 28.811 3.528 144.905 o
0 3 18 6.500 20.538 6.158 163.610 o
0 3 19 1191.550 1228.550 19.610 1.568 o
0 3 20 1863.020 1861.780 27.678 0.773 o
0 3 21 1149.620 1198.810 24.119 1.593 o
0 3 22 115.318 109.173 4.833 33.984 o
0 3 23 1778.900 1755.170 36.878 0.797 o
0 3 24 69.300 90.449 5.028 49.761 o
0 3 25 95.366 77.405 4.562 43.583 o
0 3 26 459.534 448.704 11.967 6.238 o
0 3 27 281.492 286.934 8.133 11.657 o
0 3 28 601.131 603.289 16.980 4.129 o
0 3 29 130.831 143.666 5.275 27.936 o
0 3 30 402.835 421.172 10.325 7.293 o
0 3 31 384.718 394.543 9.343 7.886 o
0 3 32 127.080 125.528 6.947 28.215 o
0 3 33 7.303 9.469 2.391 438.370 o
0 3 34 15.358 7.068 2.201 313.447 o
0 4 0 7311.320 7574.460 284.952 0.044 o
0 4 1 3735.000 3106.010 122.037 0.194 o
0 4 2 1482.420 1477.160 30.324 1.081 o
0 4 3 4796.480 4707.180 109.129 0.132 o
0 4 4 16427.400 16688.400 446.525 0.011 o
0 4 5 4259.230 4635.120 168.331 0.121 o
0 4 6 15647.800 14821.200 360.353 0.014 o
0 4 7 316.994 290.922 10.854 10.034 o
0 4 8 7451.110 7489.540 141.926 0.060 o
0 4 9 9248.940 8255.290 134.482 0.044 o
0 4 10 601.528 769.391 17.072 3.691 o
0 4 11 8834.830 9251.950 193.496 0.041 o
0 4 12 314.610 292.731 18.605 8.223 o
0 4 13 572.211 558.352 13.218 4.667 o
0 4 14 2187.600 2134.930 37.545 0.582 o
0 4 15 2132.520 2094.200 36.029 0.608 o
0 4 16 9511.180 9578.300 117.517 0.040 o
0 4 17 2110.180 2063.190 27.042 0.642 o
0 4 18 58.442 51.241 3.672 71.504 o
0 4 19 107.163 114.036 4.120 35.986 o
0 4 20 723.730 735.472 14.142 3.333 o
0 4 21 20.231 23.182 2.741 186.765 o
0 4 22 375.680 364.806 7.804 8.478 o
0 4 23 468.478 458.305 10.775 6.187 o
0 4 24 738.329 731.361 14.698 3.265 o
0 4 25 814.313 834.215 19.584 2.688 o
0 4 26 6.037 7.545 2.832 457.687 o
0 4 27 363.039 384.842 8.743 8.418 o
0 4 28 489.078 534.386 11.293 5.554 o
0 4 29 151.863 153.195 4.824 24.887 o
0 4 30 19.371 20.178 2.810 198.352 o
0 4 31 70.595 70.110 5.509 52.282 o
0 4 32 104.855 95.738 5.323 37.190 o
0 4 33 6.256 2.495 2.731 555.910 o
0 5 0 216.653 205.170 9.292 15.513 o
0 5 1 225.008 205.623 10.567 14.548 o
0 5 2 18011.000 16933.100 813.664 0.007 o
0 5 3 8045.900 7419.070 166.410 0.053 o
0 5 4 2809.890 2611.130 51.993 0.380 o
0 5 5 16228.200 15918.900 353.604 0.013 o
0 5 6 577.650 677.436 19.689 3.900 o
0 5 7 1674.890 1256.720 37.531 0.977 o
0 5 8 7.259 4.442 3.730 368.628 o
0 5 9 2253.850 2399.390 48.348 0.506 o
0 5 10 197.844 179.725 5.445 19.072 o
0 5 11 142.815 160.451 4.874 25.508 o
0 5 12 2377.820 2415.000 43.939 0.487 o
0 5 13 2.082 4.805 1.988 976.445 o
0 5 14 492.646 430.618 11.449 6.021 o
0 5 15 600.325 615.282 10.959 4.396 o
0 5 16 2.617 7.539 2.295 701.954 o
0 5 17 693.377 615.441 12.514 3.802 o
0 5 18 116.087 117.125 5.013 32.848 o
0 5 19 1672.040 1710.610 23.955 0.919 o
0 5 20 986.540 938.890 15.133 2.210 o
0 5 21 470.681 490.462 10.165 6.035 o
0 5 22 1305.350 1384.800 22.271 1.328 o
0 5 23 226.081 239.466 7.547 14.875 o
0 5 24 571.521 606.842 13.157 4.510 o
0 5 25 130.438 137.097 5.653 28.152 o
0 5 26 133.589 161.372 6.880 25.089 o
0 5 27 779.493 894.930 15.129 2.816 o
0 5 28 90.745 81.422 4.458 44.624 o
0 5 29 7.581 5.120 2.460 490.079 o
0 5 30 44.835 58.186 5.314 72.356 o
0 5 31 23.907 22.695 3.677 154.987 o
0 5 32 9.307 11.717 2.428 363.478 o
0 6 0 5406.870 4898.250 98.856 0.117 o
0 6 1 4253.430 4448.390 89.678 0.163 o
0 6 2 10956.000 12577.500 472.672 0.018 o
0 6 3 571.610 519.438 19.105 4.416 o
0 6 4 1484.180 1628.970 226.688 0.169 o
0 6 5 9234.880 9528.980 1151.440 0.007 o
0 6 6 246.257 233.553 20.729 9.314 o
0 6 7 398.319 489.359 21.991 5.493 o
0 6 8 740.306 572.480 28.028 2.999 o
0 6 9 1657.690 1589.920 59.379 0.754 o
0 6 10 7927.570 7907.710 194.517 0.049 o
0 6 11 1118.250 1067.590 30.352 1.634 o
0 6 12 0.537 5.173 3.297 664.102 o
0 6 13 7324.300 7409.140 91.264 0.066 o
0 6 14 225.278 229.170 5.890 15.680 o
0 6 15 15.643 21.809 2.565 223.098 o
0 6 16 911.727 842.821 14.414 2.520 o
0 6 17 993.266 1001.560 18.872 2.074 o
0 6 18 2968.470 2902.780 43.101 0.349 o
0 6 19 3032.800 3125.820 46.415 0.324 o
0 6 20 4005.940 4099.570 58.144 0.198 o
0 6 21 96.771 105.731 4.500 39.118 o
0 6 22 1492.070 1541.450 23.230 1.094 o
0 6 23 87.355 117.880 5.177 39.024 o
0 6 24 370.706 387.214 9.420 8.177 o
0 6 25 398.084 429.261 11.287 7.197 o
0 6 26 565.161 606.036 13.870 4.516 o
0 6 27 302.976 333.438 12.770 9.450 o
0 6 28 483.843 548.293 23.661 4.488 o
0 6 29 200.111 212.205 9.217 16.228 o
0 6 30 30.946 36.494 5.650 96.613 o
0 6 31 507.154 457.645 29.266 4.079 o
0 7 0 14.215 45.912 7.310 94.006 o
0 7 1 379.305 286.794 18.723 7.289 o
0 7 2 877.764 1024.210 36.359 1.887 o
0 7 3 2188.500 2857.340 66.328 0.431 o
0 7 4 16.769 38.074 6.854 102.007 o
0 7 5 3.506 6.635 6.509 195.632 o
0 7 6 282.987 274.691 27.908 6.479 o
0 7 7 124.674 149.897 18.284 15.344 o
0 7 8 319.199 292.215 18.268 8.235 o
0 7 9 10926.600 11691.400 276.466 0.025 o
0 7 10 822.223 951.481 36.922 2.020 o
0 7 11 3009.310 3076.200 57.439 0.318 o
0 7 12 224.642 266.495 7.578 14.310 o
0 7 13 669.323 624.395 12.147 3.918 o
0 7 14 2381.770 2434.540 39.769 0.492 o
0 7 15 3.080 9.630 3.110 482.882 o
0 7 16 49.103 52.242 4.934 73.290 o
0 7 17 13.855 28.668 4.011 176.887 o
0 7 18 437.741 440.423 11.405 6.592 o
0 7 19 85.617 65.884 4.711 48.862 o
0 7 20 143.549 133.643 7.773 24.747 o
0 7 21 160.673 168.737 8.395 20.845 o
0 7 22 67.943 76.473 6.411 49.349 o
0 7 23 37.271 29.851 6.168 87.668 o
0 7 24 1950.830 2117.990 55.025 0.596 o
0 7 25 4.205 6.909 4.149 360.429 o
0 7 26 58.745 69.810 5.367 58.749 o
0 7 27 846.479 893.955 20.437 2.495 o
0 7 28 181.272 176.165 6.600 19.955 o
0 7 29 585.303 544.855 50.468 2.232 o
0 7 30 62.813 41.154 3.020 74.337 o
0 8 0 2066.130 2162.990 74.074 0.493 o
0 8 1 588.707 645.158 23.231 3.710 o
0 8 2 8149.270 8062.580 234.743 0.044 o
0 8 3 265.330 227.910 12.015 12.038 o
0 8 4 256.866 376.726 15.632 9.266 o
0 8 5 12.801 20.832 6.776 127.632 o
0 8 6 750.928 758.441 21.754 2.930 o
0 8 7 1976.540 2030.020 40.564 0.654 o
0 8 8 846.418 947.706 22.412 2.380 o
0 8 9 189.843 201.876 9.870 16.757 o
0 8 10 2934.840 3020.130 51.522 0.336 o
0 8 11 3340.210 3525.040 59.439 0.262 o
0 8 12 4687.530 4941.520 92.174 0.138 o
0 8 13 25.126 28.124 3.619 142.873 o
0 8 14 29.753 7.781 3.335 167.291 o
0 8 15 777.042 714.876 18.436 3.032 o
0 8 16 165.259 205.645 8.752 18.837 o
0 8 17 1288.890 1301.550 30.341 1.313 o
0 8 18 78.575 92.707 6.206 43.238 o
0 8 19 2.605 4.842 3.985 441.106 o
0 8 20 269.713 230.345 11.985 11.870 o
0 8 21 54.119 54.864 4.836 68.715 o
0 8 22 650.091 672.305 15.717 3.751 o
0 8 23 35.094 34.373 6.726 82.490 o
0 8 24 26.824 26.468 5.185 117.962 o
0 8 25 143.332 151.090 8.459 23.209 o
0 8 26 40.337 35.132 4.465 95.116 o
0 8 27 2.075 4.201 2.987 682.354 o
0 8 28 358.598 298.065 13.145 8.616 o
0 9 0 11589.500 11506.700 170.651 0.027 o
0 9 1 4973.050 5109.950 81.134 0.130 o
0 9 2 6014.450 5923.080 83.264 0.096 o
0 9 3 11664.900 11434.200 159.660 0.027 o
0 9 4 2241.680 2303.290 40.959 0.538 o
0 9 5 13.372 19.110 3.123 234.746 o
0 9 6 3046.890 3047.260 47.052 0.326 o
0 9 7 93.104 87.003 4.695 42.558 o
0 9 8 11512.700 11420.700 179.138 0.027 o
0 9 9 3258.900 3326.450 59.819 0.278 o
0 9 10 1299.560 1317.990 25.477 1.341 o
0 9 11 1538.420 1561.490 30.413 1.014 o
0 9 12 9.272 17.022 3.523 265.382 o
0 9 13 33.162 40.160 3.870 107.373 o
0 9 14 81.760 84.594 5.159 45.831 o
0 9 15 4052.750 3967.340 67.040 0.195 o
0 9 16 1919.160 1840.490 34.323 0.731 o
0 9 17 3.497 1.308 3.550 549.044 o
0 9 18 25.898 28.273 4.592 126.464 o
0 9 19 1146.550 1114.170 26.324 1.625 o
0 9 20 534.153 500.742 14.604 5.075 o
0 9 21 76.820 70.550 5.557 49.405 o
0 9 22 57.024 63.801 5.275 61.865 o
0 9 23 109.321 124.838 7.056 30.928 o
0 9 24 0.047 1.222 3.172 929.244 o
0 9 25 219.353 221.703 6.216 16.101 o
0 9 26 459.208 472.887 13.441 5.975 o
0 9 27 1.739 3.348 2.714 830.148 o
0 10 0 730.492 728.219 13.851 3.329 o
0 10 1 2756.030 2780.620 41.641 0.389 o
0 10 2 51.623 57.925 4.239 72.097 o
0 10 3 1521.490 1519.490 26.870 1.060 o
0 10 4 314.871 339.813 9.527 9.764 o
0 10 5 574.721 574.455 13.339 4.587 o
0 10 6 7988.020 8225.050 113.786 0.054 o
0 10 7 1088.660 1028.410 16.508 1.905 o
0 10 8 79.319 100.794 4.844 44.513 o
0 10 9 2317.610 2401.390 35.567 0.519 o
0 10 10 1008.370 1002.610 28.305 1.877 o
0 10 11 10.478 26.801 4.581 181.932 o
0 10 12 1000.300 1061.790 19.979 1.986 o
0 10 13 1.621 5.406 3.059 654.012 o
0 10 14 463.960 462.917 11.208 6.176 o
0 10 15 182.276 154.781 6.542 20.780 o
0 10 16 2948.520 2893.250 50.043 0.344 o
0 10 17 94.656 62.606 5.447 44.569 o
0 10 18 108.055 114.429 6.603 32.700 o
0 10 19 243.144 236.434 8.921 13.736 o
0 10 20 0.009 2.126 3.404 778.872 o
0 10 21 2378.350 2423.800 58.927 0.453 o
0 10 22 1192.890 1195.270 25.791 1.522 o
0 10 23 679.076 665.471 15.555 3.635 o
0 10 24 739.084 755.351 20.347 3.027 o
0 10 25 68.909 52.898 6.564 53.494 o
0 11 0 568.762 566.494 11.860 4.736 o
0 11 1 475.105 471.460 10.516 6.064 o
0 11 2 65.778 61.740 3.975 61.589 o
0 11 3 4783.160 4787.130 71.560 0.144 o
0 11 4 979.200 1076.450 23.293 1.957 o
0 11 5 9.591 6.399 2.831 382.492 o
0 11 6 262.617 274.413 7.664 12.609 o
0 11 7 4130.180 4148.370 57.148 0.190 o
0 11 8 446.546 431.008 9.089 6.747 o
0 11 9 5178.470 5164.790 67.285 0.127 o
0 11 10 81.736 101.979 4.431 44.246 o
0 11 11 101.107 134.511 8.066 30.099 o
0 11 12 78.197 87.049 4.879 47.277 o
0 11 13 2058.010 2002.070 36.286 0.645 o
0 11 14 484.610 517.174 12.607 5.580 o
0 11 15 6498.040 6443.400 124.018 0.078 o
0 11 16 1689.610 1644.410 29.935 0.901 o
0 11 17 282.777 278.961 9.497 11.428 o
0 11 18 1073.050 1032.780 23.149 1.837 o
0 11 19 388.736 389.093 10.964 7.671 o
0 11 20 390.571 356.760 11.994 7.758 o
0 11 21 2.584 4.098 2.032 941.016 o
0 11 22 1814.720 1776.710 60.850 0.660 o
0 11 23 47.992 35.263 9.463 54.024 o
0 12 0 452.951 434.268 10.324 6.544 o
0 12 1 32.983 37.882 4.020 108.368 o
0 12 2 3721.210 3691.690 54.599 0.230 o
0 12 3 2525.960 2571.820 44.672 0.441 o
0 12 4 573.323 568.031 13.656 4.601 o
0 12 5 874.822 900.035 27.004 2.251 o
0 12 6 0.788 5.814 3.236 645.818 o
0 12 7 1071.440 1020.810 38.182 1.586 o
0 12 8 2312.950 2373.170 41.402 0.511 o
0 12 9 64.843 85.294 4.234 54.898 o
0 12 10 68.436 72.765 4.809 54.690 o
0 12 11 1954.310 1979.420 37.906 0.679 o
0 12 12 696.941 707.918 23.533 3.129 o
0 12 13 1284.580 1274.810 33.863 1.292 o
0 12 14 1252.280 1217.020 26.214 1.436 o
0 12 15 178.858 168.803 5.682 20.919 o
0 12 16 1091.820 1141.220 30.357 1.620 o
0 12 17 37.594 28.559 4.581 103.184 o
0 12 18 7.779 16.552 4.325 242.033 o
0 12 19 10.836 12.611 2.653 317.472 o
0 12 20 82.296 52.803 4.312 54.113 o
0 12 21 30.203 31.262 3.978 120.943 o
0 13 0 36.127 40.035 4.301 98.979 o
0 13 1 175.904 153.273 7.973 20.510 o
0 13 2 0.612 7.155 4.086 449.062 o
0 13 3 2081.520 2026.660 48.166 0.597 o
0 13 4 150.841 177.676 7.457 21.985 o
0 13 5 2215.800 2164.070 44.003 0.554 o
0 13 6 1350.000 1298.370 28.262 1.277 o
0 13 7 122.639 144.929 5.874 28.524 o
0 13 8 15.361 13.220 3.063 244.865 o
0 13 9 195.597 186.912 7.589 18.039 o
0 13 10 856.431 850.584 28.688 2.296 o
0 13 11 121.210 132.529 7.924 27.449 o
0 13 12 188.530 185.442 6.067 19.294 o
0 13 13 496.389 430.932 11.042 6.012 o
0 13 14 4.993 2.707 3.083 545.637 o
0 13 15 53.974 45.765 4.783 72.681 o
0 13 16 74.304 47.974 4.163 60.049 o
0 13 17 119.460 106.951 7.220 30.511 o
0 13 18 80.399 71.240 5.086 49.015 o
0 14 0 403.887 407.919 28.698 4.863 o
0 14 1 592.657 649.865 29.410 3.296 o
0 14 2 428.222 439.359 21.671 5.493 o
0 14 3 1873.200 1868.170 110.132 0.414 o
0 14 4 121.748 123.972 13.289 21.335 o
0 14 5 771.524 851.758 33.073 2.337 o
0 14 6 1.313 3.027 2.834 842.977 o
0 14 7 796.068 881.510 28.921 2.390 o
0 14 8 373.961 432.427 13.733 7.201 o
0 14 9 107.803 154.648 8.015 27.665 o
0 14 10 325.403 344.229 16.478 8.117 o
0 14 11 93.354 99.054 4.831 40.487 o
0 14 12 181.775 157.146 9.216 19.094 o
0 14 13 242.676 198.713 56.513 2.682 o
0 14 14 221.555 240.651 11.815 13.431 o
0 14 15 915.777 915.099 22.809 2.250 o
0 15 0 849.739 886.052 25.215 2.371 o
0 15 1 0.513 1.276 2.951 986.183 o
0 15 2 808.768 811.645 16.737 2.815 o
0 15 3 180.943 212.814 8.659 17.609 o
0 15 4 21.542 22.789 3.058 175.460 o
0 15 5 383.674 373.392 9.188 8.100 o
0 15 6 6.225 8.394 2.404 486.801 o
0 15 7 4.782 4.120 2.891 558.111 o
0 15 8 1363.370 1370.400 55.094 0.971 o
0 15 9 87.815 74.677 4.498 46.774 o
0 15 10 211.026 184.692 19.973 10.905 o
0 15 11 577.626 572.835 15.611 4.442 o
0 15 12 225.084 194.111 7.270 16.181 o
0 16 0 51.331 77.680 6.913 54.598 o
0 16 1 390.541 412.450 11.643 7.383 o
0 16 2 865.226 901.391 19.306 2.465 o
0 16 3 542.316 482.988 25.473 4.178 o
0 16 4 4.807 3.328 2.088 741.857 o
0 16 5 26.626 19.043 2.962 163.351 o
0 16 6 93.224 86.016 4.661 42.730 o
0 16 7 20.958 10.858 2.449 227.184 o
1 -17 0 144.788 133.435 4.528 27.233 o
1 -17 1 281.593 219.772 14.047 10.993 o
1 -17 2 192.774 159.945 12.467 16.204 o
1 -17 3 28.573 33.100 2.749 135.999 o
1 -17 4 216.302 192.389 7.171 16.765 o
1 -17 5 83.470 63.767 4.125 51.475 o
1 -17 6 42.794 46.341 3.584 90.337 o
1 -17 7 780.672 666.743 25.223 2.849 o
1 -17 8 126.813 82.132 4.936 34.289 o
1 -17 9 725.240 503.062 29.203 3.101 o
1 -17 10 60.502 40.890 3.158 76.064 o
1 -17 11 0.285 -0.386 1.987 2347.080 o
1 -17 12 44.534 36.005 2.476 101.199 o
1 -17 13 193.826 125.720 6.195 21.229 o
1 -16 0 121.521 139.820 6.549 28.404 o
1 -16 1 462.452 454.308 14.911 5.893 o
1 -16 2 257.380 267.273 16.956 10.033 o
1 -16 3 95.369 81.297 4.770 42.614 o
1 -16 4 450.286 437.271 15.899 5.997 o
1 -16 5 20.748 34.807 3.511 147.728 o
1 -16 6 25.485 20.676 3.230 160.381 o
1 -16 7 346.885 306.894 22.498 6.811 o
1 -16 8 216.884 181.798 19.768 10.891 o
1 -16 9 565.731 549.108 33.838 3.273 o
1 -16 10 182.390 197.636 6.426 19.135 o
1 -16 11 2.805 2.564 2.392 876.850 o
1 -16 12 658.193 649.605 14.626 3.813 o
1 -16 13 338.722 357.297 9.209 9.099 o
1 -16 14 137.197 132.396 4.829 28.177 o
1 -16 15 2.303 0.429 3.433 662.830 o
1 -16 16 27.360 24.096 3.086 149.623 o
1 -16 17 112.612 100.609 6.338 33.522 o
1 -16 18 35.829 19.588 3.297 128.991 o
1 -16 19 196.243 149.991 4.971 20.557 o
1 -15 0 253.075 290.579 16.939 9.875 o
1 -15 1 198.197 188.552 7.464 17.874 o
1 -15 2 244.946 218.784 12.806 12.575 o
1 -15 3 269.784 271.511 9.431 11.968 o
1 -15 4 3.213 5.123 3.534 489.550 o
1 -15 5 671.030 671.770 16.311 3.627 o
1 -15 6 200.939 202.512 7.479 17.254 o
1 -15 7 75.232 74.823 5.469 49.415 o
1 -15 8 2639.670 2761.460 54.484 0.390 o
1 -15 9 1243.350 1158.580 31.921 1.412 o
1 -15 10 440.918 467.044 15.257 6.010 o
1 -15 11 1836.400 1922.910 59.642 0.637 o
1 -15 12 707.892 745.787 17.340 3.269 o
1 -15 13 1241.750 1333.250 30.455 1.342 o
1 -15 14 388.792 446.798 9.166 7.431 o
1 -15 15 13.787 12.828 2.380 288.870 o
1 -15 16 0.839 2.123 2.320 1256.980 o
1 -15 17 53.193 54.307 4.778 69.895 o
1 -15 18 281.341 278.662 7.157 12.000 o
1 -15 19 144.547 144.631 4.576 26.479 o
1 -15 20 246.732 248.384 6.879 13.938 o
1 -15 21 654.122 623.863 15.736 3.851 o
1 -15 22 46.602 43.741 5.042 78.807 o
1 -14 0 1423.480 1365.970 31.041 1.162 o
1 -14 1 87.161 72.173 4.670 47.139 o
1 -14 2 238.008 268.548 9.085 13.248 o
1 -14 3 360.315 385.372 11.410 8.103 o
1 -14 4 2268.400 2226.670 38.591 0.546 o
1 -14 5 1268.930 1228.400 38.443 1.273 o
1 -14 6 1750.270 1697.040 43.749 0.789 o
1 -14 7 0.648 7.803 3.135 621.971 o
1 -14 8 1440.440 1331.340 25.339 1.206 o
1 -14 9 252.914 227.636 7.629 13.911 o
1 -14 10 1476.200 1484.780 51.414 0.916 o
1 -14 11 436.904 467.655 15.261 6.048 o
1 -14 12 741.882 879.204 18.238 2.879 o
1 -14 13 731.900 746.613 18.609 3.131 o
1 -14 14 1229.020 1269.910 27.735 1.416 o
1 -14 15 137.090 135.294 5.729 27.273 o
1 -14 16 531.158 590.880 11.873 4.924 o
1 -14 17 0.634 6.088 2.172 1016.300 o
1 -14 18 2035.860 2169.850 30.722 0.640 o
1 -14 19 854.185 953.267 21.105 2.386 o
1 -14 20 51.409 48.124 3.187 81.317 o
1 -14 21 225.110 219.133 7.159 15.555 o
1 -14 22 7.563 6.121 2.518 467.719 o
1 -14 23 18.318 12.388 3.133 222.266 o
1 -14 24 4.028 4.301 1.978 792.150 o
1 -14 25 312.324 277.921 7.967 10.906 o
1 -13 0 223.550 193.144 8.116 15.962 o
1 -13 1 1454.390 1397.030 32.606 1.113 o
1 -13 2 5000.080 5252.220 98.913 0.122 o
1 -13 3 1533.860 1532.980 34.876 0.997 o
1 -13 4 272.316 260.384 7.641 12.519 o
1 -13 5 1757.150 1677.260 43.375 0.792 o
1 -13 6 1.643 5.329 2.819 719.768 o
1 -13 7 992.935 1068.260 18.851 2.011 o
1 -13 8 2098.290 2179.480 28.241 0.624 o
1 -13 9 4.874 9.493 2.176 544.344 o
1 -13 10 40.191 43.635 2.687 100.951 o
1 -13 11 875.964 900.605 14.673 2.534 o
1 -13 12 6.583 9.552 2.303 466.712 o
1 -13 13 6.346 4.999 2.348 555.211 o
1 -13 14 1147.790 1216.860 19.137 1.639 o
1 -13 15 515.625 471.833 8.877 5.752 o
1 -13 16 254.025 287.107 6.476 12.960 o
1 -13 17 1222.660 1356.190 23.311 1.421 o
1 -13 18 72.412 75.386 3.627 55.004 o
1 -13 19 0.155 1.188 2.350 1549.040 o
1 -13 20 110.666 127.696 4.260 33.628 o
1 -13 21 757.066 800.980 20.396 2.889 o
1 -13 22 651.006 709.661 12.960 3.762 o
1 -13 23 367.243 392.068 9.493 8.186 o
1 -13 24 425.662 466.118 8.909 6.805 o
1 -13 25 2142.880 2212.400 33.766 0.593 o
1 -13 26 7.660 13.710 2.051 401.305 o
1 -13 27 1.929 3.607 2.186 1002.360 o
1 -12 0 212.014 244.815 7.399 15.485 o
1 -12 1 410.341 399.046 13.859 6.921 o
1 -12 2 236.402 215.527 6.160 15.381 o
1 -12 3 2828.880 2950.520 45.651 0.361 o
1 -12 4 302.753 286.395 7.090 11.219 o
1 -12 5 1733.210 1696.780 24.663 0.886 o
1 -12 6 337.931 314.021 6.690 9.959 o
1 -12 7 333.321 348.009 6.922 9.635 o
1 -12 8 4169.330 4259.020 44.692 0.190 o
1 -12 9 192.519 158.948 4.210 20.784 o
1 -12 10 3090.110 3169.180 36.960 0.322 o
1 -12 11 4344.350 4348.710 56.358 0.175 o
1 -12 12 2072.280 2069.290 29.217 0.648 o
1 -12 13 253.805 266.828 6.337 13.394 o
1 -12 14 533.788 557.309 9.794 5.149 o
1 -12 15 952.633 966.187 26.658 2.039 o
1 -12 16 1289.630 1394.660 23.822 1.327 o
1 -12 17 1945.950 2030.930 39.093 0.669 o
1 -12 18 2605.530 2782.390 42.838 0.411 o
1 -12 19 289.623 299.010 13.404 9.983 o
1 -12 20 135.421 158.078 7.430 24.593 o
1 -12 21 6.536 10.071 3.264 370.945 o
1 -12 22 2278.300 2482.940 34.395 0.520 o
1 -12 23 1179.370 1257.840 21.424 1.547 o
1 -12 24 412.723 445.795 9.666 7.048 o
1 -12 25 498.854 513.680 9.829 5.654 o
1 -12 26 22.630 17.027 2.354 197.592 o
1 -12 27 218.691 247.695 7.862 14.926 o
1 -12 28 22.265 17.380 2.233 200.862 o
1 -12 29 105.607 95.392 4.293 38.427 o
1 -11 0 772.933 752.016 14.935 3.087 o
1 -11 1 87.426 80.433 4.429 46.001 o
1 -11 2 1662.300 1726.490 23.851 0.920 o
1 -11 3 3389.660 3470.980 40.765 0.273 o
1 -11 4 5510.560 5614.530 62.427 0.113 o
1 -11 5 1350.490 1337.920 18.623 1.333 o
1 -11 6 532.149 500.962 8.809 5.459 o
1 -11 7 38.098 49.314 2.967 98.270 o
1 -11 8 1330.740 1391.190 21.223 1.308 o
1 -11 9 8392.260 8641.940 101.125 0.050 o
1 -11 10 1235.800 1293.910 21.236 1.460 o
1 -11 11 5.911 5.975 3.194 441.132 o
1 -11 12 66.463 78.311 3.841 56.824 o
1 -11 13 28.806 28.509 3.310 135.624 o
1 -11 14 674.615 594.835 13.328 3.923 o
1 -11 15 7721.690 7734.340 114.621 0.059 o
1 -11 16 1408.650 1476.520 25.198 1.173 o
1 -11 17 1162.140 1200.340 19.250 1.629 o
1 -11 18 597.181 635.563 12.612 4.281 o
1 -11 19 1649.880 1645.600 25.495 0.944 o
1 -11 20 363.567 401.200 8.323 8.309 o
1 -11 21 37.787 39.314 3.365 104.144 o
1 -11 22 14.437 14.641 2.611 263.012 o
1 -11 23 58.909 68.416 3.247 65.998 o
1 -11 24 1.708 1.482 2.079 1298.450 o
1 -11 25 510.097 549.489 9.100 5.424 o
1 -11 26 7.758 13.595 2.296 384.379 o
1 -11 27 203.026 223.302 5.122 17.349 o
1 -11 28 236.866 267.976 5.931 14.176 o
1 -11 29 94.251 119.916 5.434 36.678 o
1 -11 30 144.734 132.567 4.281 27.460 o
1 -10 0 2151.090 2163.980 31.020 0.604 o
1 -10 1 1865.820 1893.670 25.329 0.772 o
1 -10 2 2937.850 3101.520 36.545 0.346 o
1 -10 3 157.143 152.653 4.491 24.490 o
1 -10 4 995.797 1055.320 17.753 2.034 o
1 -10 5 4473.800 4312.910 60.211 0.169 o
1 -10 6 1477.790 1459.660 19.852 1.155 o
1 -10 7 303.768 278.318 6.365 11.432 o
1 -10 8 91.403 103.813 5.582 39.160 o
1 -10 9 753.904 744.577 16.951 3.110 o
1 -10 10 1023.670 1036.990 22.627 1.925 o
1 -10 11 814.269 849.975 18.886 2.684 o
1 -10 12 4990.260 4934.780 67.843 0.136 o
1 -10 13 1258.670 1297.450 21.283 1.432 o
1 -10 14 1617.670 1718.580 26.807 0.936 o
1 -10 15 102.126 110.874 4.693 36.876 o
1 -10 16 1275.480 1258.800 20.211 1.443 o
1 -10 17 2.537 4.725 2.834 674.683 o
1 -10 18 40.565 53.469 3.860 87.119 o
1 -10 19 314.218 336.463 8.607 9.979 o
1 -10 20 5.193 5.126 2.867 523.799 o
1 -10 21 11.062 28.140 4.063 190.713 o
1 -10 22 1309.810 1395.010 26.923 1.281 o
1 -10 23 106.131 107.304 6.680 33.654 o
1 -10 24 1.441 6.596 3.969 451.752 o
1 -10 25 390.736 432.658 9.698 7.454 o
1 -10 26 403.444 439.043 9.505 7.240 o
1 -10 27 2.363 7.229 2.364 715.640 o
1 -10 28 94.262 92.157 7.703 35.999 o
1 -10 29 28.166 20.856 1.919 166.923 o
1 -10 30 50.007 52.444 3.417 79.582 o
1 -10 31 297.659 270.141 8.396 11.362 o
1 -10 32 6.930 7.635 2.617 453.435 o
1 -9 0 2503.750 2425.920 71.274 0.403 o
1 -9 1 1044.040 865.459 42.688 1.619 o
1 -9 2 989.724 904.815 40.671 1.708 o
1 -9 3 21153.700 20516.600 680.335 0.007 o
1 -9 4 539.638 434.173 38.891 3.170 o
1 -9 5 4279.520 4072.070 166.851 0.128 o
1 -9 6 889.054 752.291 36.622 2.086 o
1 -9 7 1199.770 1168.960 79.111 0.833 o
1 -9 8 278.162 285.437 16.186 9.618 o
1 -9 9 383.188 399.062 9.333 7.876 o
1 -9 10 6026.360 6075.750 95.766 0.092 o
1 -9 11 9002.410 8916.550 118.116 0.045 o
1 -9 12 506.411 537.003 9.868 5.472 o
1 -9 13 5134.220 5192.120 65.517 0.128 o
1 -9 14 689.247 669.635 11.635 3.716 o
1 -9 15 3403.160 3263.820 42.732 0.280 o
1 -9 16 8716.280 8430.120 112.724 0.048 o
1 -9 17 2839.370 2887.480 44.702 0.365 o
1 -9 18 8663.980 8724.000 125.837 0.047 o
1 -9 19 59.947 63.738 5.452 59.467 o
1 -9 20 363.855 357.898 8.899 8.635 o
1 -9 21 1840.230 1873.290 34.673 0.755 o
1 -9 22 2236.760 2317.740 41.509 0.536 o
1 -9 23 1578.990 1564.470 29.571 0.992 o
1 -9 24 416.292 454.685 11.601 6.751 o
1 -9 25 108.052 119.943 6.706 32.049 o
1 -9 26 821.900 871.636 24.174 2.486 o
1 -9 27 24.771 32.537 4.169 129.927 o
1 -9 28 279.330 290.542 11.526 10.844 o
1 -9 29 40.810 50.823 5.302 79.359 o
1 -9 30 106.995 115.805 7.143 32.010 o
1 -9 31 420.799 458.538 11.134 6.717 o
1 -9 32 688.988 654.379 45.145 2.212 o
1 -9 33 301.583 256.871 18.331 8.825 o
1 -8 0 434.631 381.456 21.204 5.752 o
1 -8 1 6180.370 5844.460 144.737 0.083 o
1 -8 2 1982.450 2013.900 67.145 0.553 o
1 -8 3 6371.300 6710.360 343.164 0.044 o
1 -8 4 25127.500 25223.800 575.460 0.005 o
1 -8 5 161.910 157.011 13.921 16.913 o
1 -8 6 50.539 22.130 13.778 36.126 o
1 -8 7 1446.270 1194.430 68.091 0.845 o
1 -8 8 1347.970 1369.710 74.245 0.792 o
1 -8 9 11028.100 10807.100 263.323 0.027 o
1 -8 10 21.710 43.072 9.737 64.135 o
1 -8 11 4502.580 4392.580 165.971 0.119 o
1 -8 12 2636.900 2644.680 55.818 0.397 o
1 -8 13 5.132 7.545 2.485 533.422 o
1 -8 14 1087.100 1038.330 14.916 1.917 o
1 -8 15 3572.360 3446.760 41.779 0.258 o
1 -8 16 1160.680 1109.900 15.957 1.728 o
1 -8 17 10042.800 9851.940 119.408 0.037 o
1 -8 18 1358.190 1430.460 20.646 1.267 o
1 -8 19 4041.960 4103.180 56.463 0.196 o
1 -8 20 682.822 686.040 12.829 3.669 o
1 -8 21 194.004 193.135 5.983 18.651 o
1 -8 22 53.941 47.334 3.608 77.431 o
1 -8 23 2302.800 2391.570 37.556 0.519 o
1 -8 24 2167.700 2304.860 36.158 0.568 o
1 -8 25 492.349 515.942 10.312 5.676 o
1 -8 26 214.590 200.982 5.731 17.132 o
1 -8 27 125.161 142.524 4.230 29.694 o
1 -8 28 66.918 79.085 4.808 53.898 o
1 -8 29 642.287 633.953 58.414 1.765 o
1 -8 30 514.256 616.705 26.773 3.875 o
1 -8 31 75.168 105.972 8.897 36.179 o
1 -8 32 193.167 185.780 7.633 18.216 o
1 -8 33 313.757 320.069 8.658 10.183 o
1 -8 34 63.284 64.766 2.429 66.179 o
1 -7 0 333.238 361.229 17.270 7.700 o
1 -7 1 3482.730 3403.230 67.697 0.249 o
1 -7 2 6185.270 6199.390 185.708 0.073 o
1 -7 3 498.317 600.822 19.498 4.593 o
1 -7 4 810.646 899.569 24.473 2.470 o
1 -7 5 1607.150 1351.330 33.997 1.014 o
1 -7 6 1214.600 1117.900 30.048 1.489 o
1 -7 7 2937.110 3566.690 76.181 0.279 o
1 -7 8 80.390 88.538 16.737 21.421 o
1 -7 9 173.993 156.484 12.758 17.127 o
1 -7 10 875.024 1112.480 39.584 1.748 o
1 -7 11 10.140 11.975 5.701 182.173 o
1 -7 12 695.454 684.868 40.550 2.373 o
1 -7 13 1734.380 1663.520 73.690 0.629 o
1 -7 14 202.616 229.801 21.675 9.846 o
1 -7 15 2021.990 2156.620 57.920 0.561 o
1 -7 16 123.354 108.090 5.579 31.724 o
1 -7 17 13.434 7.395 2.354 333.102 o
1 -7 18 1951.250 2010.900 35.735 0.682 o
1 -7 19 2787.070 2805.730 48.838 0.373 o
1 -7 20 12.474 9.774 3.302 280.950 o
1 -7 21 1042.870 1100.820 19.549 1.883 o
1 -7 22 2446.730 2371.240 37.231 0.490 o
1 -7 23 120.557 118.897 4.120 32.672 o
1 -7 24 274.942 293.611 7.271 11.941 o
1 -7 25 139.096 129.473 4.605 28.277 o
1 -7 26 110.398 103.725 3.930 36.630 o
1 -7 27 1120.920 1159.050 18.074 1.730 o
1 -7 28 22.275 16.480 2.677 195.082 o
1 -7 29 129.252 138.512 5.152 28.650 o
1 -7 30 235.531 270.869 7.800 13.685 o
1 -7 31 194.576 217.014 7.226 17.308 o
1 -7 32 66.486 72.871 3.841 58.288 o
1 -7 33 162.058 167.141 6.734 21.914 o
1 -7 34 3.265 4.647 1.646 943.029 o
1 -6 0 77.990 45.839 4.301 58.162 o
1 -6 1 15307.100 13840.700 214.540 0.017 o
1 -6 2 1611.900 1521.450 30.667 0.978 o
1 -6 3 431.370 242.539 8.907 8.450 o
1 -6 4 68.706 59.951 5.415 55.904 o
1 -6 5 5373.510 5306.960 104.721 0.111 o
1 -6 6 1361.010 1110.410 29.217 1.347 o
1 -6 7 877.585 1084.400 23.499 2.137 o
1 -6 8 723.670 880.344 20.469 2.866 o
1 -6 9 1678.130 1762.520 45.999 0.793 o
1 -6 10 1655.530 1747.090 46.913 0.801 o
1 -6 11 1145.020 1189.480 80.420 0.835 o
1 -6 12 1112.200 1140.790 53.326 1.227 o
1 -6 13 24.556 19.328 9.471 72.784 o
1 -6 14 444.221 382.454 12.983 6.703 o
1 -6 15 984.154 959.492 40.531 1.683 o
1 -6 16 523.300 526.801 16.153 4.942 o
1 -6 17 1231.580 1235.840 23.214 1.480 o
1 -6 18 1737.330 1646.500 26.744 0.889 o
1 -6 19 1176.080 1176.860 20.404 1.615 o
1 -6 20 2237.770 2177.900 34.588 0.569 o
1 -6 21 1.142 0.742 2.551 1175.580 o
1 -6 22 93.775 90.392 4.442 42.238 o
1 -6 23 78.448 89.898 4.132 48.133 o
1 -6 24 1171.810 1232.700 21.692 1.570 o
1 -6 25 105.880 117.277 5.478 34.339 o
1 -6 26 113.082 139.104 5.897 30.470 o
1 -6 27 67.156 77.806 4.056 56.065 o
1 -6 28 895.678 915.125 15.066 2.455 o
1 -6 29 852.020 790.933 10.272 2.846 o
1 -6 30 81.187 75.545 3.735 50.690 o
1 -6 31 283.127 306.089 7.212 11.493 o
1 -6 32 31.943 23.555 2.790 139.598 o
1 -6 33 69.001 47.424 3.876 64.415 o
1 -6 34 90.927 78.277 4.027 45.837 o
1 -5 0 4777.400 4392.410 299.053 0.067 o
1 -5 1 626.406 784.454 16.341 3.571 o
1 -5 2 3036.460 2898.090 58.698 0.323 o
1 -5 3 84.843 68.066 4.777 48.589 o
1 -5 4 19516.500 19127.900 301.698 0.010 o
1 -5 5 5225.960 4903.310 82.394 0.125 o
1 -5 6 2069.370 2225.350 35.774 0.608 o
1 -5 7 4894.930 4854.250 81.230 0.136 o
1 -5 8 5678.660 5395.900 90.730 0.106 o
1 -5 9 1079.630 976.137 28.730 1.779 o
1 -5 10 147.871 173.585 8.149 21.940 o
1 -5 11 2340.620 2135.840 57.596 0.492 o
1 -5 12 3030.450 3106.720 65.131 0.305 o
1 -5 13 115.360 124.611 6.751 30.321 o
1 -5 14 10926.400 10317.400 163.917 0.031 o
1 -5 15 761.614 878.528 21.201 2.730 o
1 -5 16 5713.280 5595.920 130.898 0.095 o
1 -5 17 0.015 6.098 3.872 526.253 o
1 -5 18 160.570 134.518 5.930 24.258 o
1 -5 19 9478.520 8657.210 160.275 0.041 o
1 -5 20 577.512 591.406 12.060 4.577 o
1 -5 21 1589.820 1528.840 23.476 1.028 o
1 -5 22 100.198 108.897 4.490 37.841 o
1 -5 23 419.784 353.857 8.248 7.762 o
1 -5 24 14.578 14.728 2.824 253.682 o
1 -5 25 7.817 15.382 2.712 339.762 o
1 -5 26 1.947 5.099 2.604 767.829 o
1 -5 27 2603.490 2655.970 37.640 0.430 o
1 -5 28 27.720 29.172 2.860 143.098 o
1 -5 29 1531.400 1535.670 25.079 1.058 o
1 -5 30 284.522 247.940 7.252 12.395 o
1 -5 31 1.873 2.382 1.822 1316.040 o
1 -5 32 54.348 57.925 2.717 75.359 o
1 -5 33 50.317 49.219 2.620 84.106 o
1 -5 34 52.211 59.936 3.866 72.314 o
1 -5 35 255.044 191.998 8.558 14.297 o
1 -4 0 2827.830 2495.960 84.206 0.331 o
1 -4 1 828.376 806.598 24.157 2.553 o
1 -4 2 10481.900 10018.600 272.862 0.029 o
1 -4 3 6575.630 6062.980 111.074 0.081 o
1 -4 4 2186.550 1906.700 42.458 0.602 o
1 -4 5 12943.700 11785.900 214.990 0.022 o
1 -4 6 4345.060 4048.210 77.490 0.173 o
1 -4 7 67.864 67.738 7.329 48.151 o
1 -4 8 3062.810 2897.950 81.655 0.291 o
1 -4 9 11.732 39.849 8.577 84.877 o
1 -4 10 34046.000 32716.100 682.469 0.003 o
1 -4 11 11.110 10.926 4.265 240.602 o
1 -4 12 11831.500 11967.300 257.174 0.024 o
1 -4 13 13479.000 14674.400 315.332 0.017 o
1 -4 14 125.183 126.276 11.552 22.995 o
1 -4 15 2548.910 2536.350 120.286 0.286 o
1 -4 16 3.399 16.127 4.948 248.067 o
1 -4 17 370.907 234.357 16.551 8.257 o
1 -4 18 28.977 36.468 5.363 102.657 o
1 -4 19 242.722 232.453 8.562 13.954 o
1 -4 20 1886.780 1852.380 33.467 0.745 o
1 -4 21 234.576 267.047 8.225 13.678 o
1 -4 22 854.332 954.897 19.778 2.414 o
1 -4 23 780.679 808.470 17.564 2.888 o
1 -4 24 4322.430 4237.230 71.240 0.173 o
1 -4 25 1680.270 1807.830 33.470 0.847 o
1 -4 26 2285.140 2148.200 29.344 0.571 o
1 -4 27 187.183 161.248 4.990 20.841 o
1 -4 28 157.101 184.608 5.197 22.435 o
1 -4 29 77.624 79.647 3.761 51.296 o
1 -4 30 19.632 15.950 2.714 212.053 o
1 -4 31 30.206 34.202 2.834 129.359 o
1 -4 32 37.189 41.869 2.342 109.457 o
1 -4 33 118.269 121.669 4.049 32.907 o
1 -4 34 28.933 27.906 2.568 144.488 o
1 -4 35 67.959 66.683 3.861 59.149 o
1 -3 0 12339.100 11885.000 273.584 0.022 o
1 -3 1 21830.900 21053.100 381.888 0.008 o
1 -3 2 9627.910 9116.720 287.807 0.032 o
1 -3 3 5457.680 5104.650 164.290 0.095 o
1 -3 4 1453.450 1423.450 50.840 0.949 o
1 -3 5 17974.900 17516.800 1175.190 0.005 o
1 -3 6 1063.550 1252.030 84.777 0.805 o
1 -3 7 4711.740 4695.900 158.471 0.115 o
1 -3 8 147.460 162.223 14.067 17.465 o
1 -3 9 4931.990 5287.420 171.995 0.100 o
1 -3 10 6201.330 6356.190 148.029 0.078 o
1 -3 11 4780.050 4450.030 107.036 0.137 o
1 -3 12 5767.880 5912.010 98.421 0.098 o
1 -3 13 1201.670 1088.100 32.027 1.494 o
1 -3 14 1543.760 1572.570 39.553 0.947 o
1 -3 15 4894.940 5214.440 105.243 0.124 o
1 -3 16 98.144 89.035 8.293 34.365 o
1 -3 17 14.743 12.714 5.959 153.646 o
1 -3 18 542.214 525.481 24.711 4.129 o
1 -3 19 87.101 95.736 6.272 40.149 o
1 -3 20 1139.940 1063.930 17.182 1.783 o
1 -3 21 1107.470 991.809 16.489 1.904 o
1 -3 22 1892.260 1805.710 29.850 0.765 o
1 -3 23 12380.100 12418.100 177.362 0.024 o
1 -3 24 1028.060 996.759 18.687 2.015 o
1 -3 25 2632.690 2679.910 38.516 0.421 o
1 -3 26 2754.540 2898.370 41.587 0.380 o
1 -3 27 402.476 361.696 11.647 7.583 o
1 -3 28 688.497 720.778 14.196 3.515 o
1 -3 29 184.506 193.912 5.208 19.636 o
1 -3 30 3.634 1.892 2.253 871.349 o
1 -3 31 2787.300 2848.260 39.179 0.382 o
1 -3 32 184.656 193.664 5.279 19.606 o
1 -3 33 154.544 148.539 5.088 24.688 o
1 -3 34 3.187 2.892 1.916 982.436 o
1 -3 35 33.135 31.941 2.939 124.022 o
1 -2 0 1534.880 1569.030 31.015 1.010 o
1 -2 1 2921.640 2975.160 69.290 0.318 o
1 -2 2 1794.900 1770.470 43.576 0.756 o
1 -2 3 6268.220 6267.730 210.516 0.067 o
1 -2 4 20873.700 21652.000 480.055 0.008 o
1 -2 5 551.914 605.429 26.746 3.729 o
1 -2 6 24418.700 25033.600 785.139 0.005 o
1 -2 7 5361.130 5389.720 125.855 0.105 o
1 -2 8 1637.360 1687.940 63.890 0.714 o
1 -2 9 9411.940 9571.980 310.270 0.031 o
1 -2 10 1001.170 865.659 80.285 0.952 o
1 -2 11 390.778 366.024 21.999 6.120 o
1 -2 12 4476.930 4586.290 168.098 0.117 o
1 -2 13 142.235 187.423 12.752 18.109 o
1 -2 14 2819.780 3427.150 79.829 0.291 o
1 -2 15 1951.470 2061.100 49.101 0.626 o
1 -2 16 1262.610 1178.600 33.253 1.365 o
1 -2 17 885.292 832.791 33.032 2.128 o
1 -2 18 193.188 204.477 40.357 4.757 o
1 -2 19 582.170 580.979 16.150 4.356 o
1 -2 20 2641.210 2553.810 38.805 0.431 o
1 -2 21 905.676 948.094 17.844 2.339 o
1 -2 22 11.653 10.870 3.167 291.204 o
1 -2 23 1857.840 1988.350 34.176 0.726 o
1 -2 24 4149.240 4069.050 53.247 0.193 o
1 -2 25 2.569 2.112 2.771 790.286 o
1 -2 26 272.982 249.801 6.979 12.839 o
1 -2 27 245.712 246.291 6.823 14.042 o
1 -2 28 298.644 300.300 7.394 11.082 o
1 -2 29 303.326 328.867 9.293 10.219 o
1 -2 30 122.048 117.370 4.762 31.954 o
1 -2 31 199.551 189.924 5.711 18.482 o
1 -2 32 377.011 382.677 8.992 8.158 o
1 -2 33 0.603 1.138 1.741 2162.510 o
1 -2 34 0.781 0.508 1.609 2501.630 o
1 -2 35 282.423 282.970 18.328 8.937 o
1 -1 0 10778.000 10132.100 317.577 0.026 o
1 -1 1 553.883 502.374 20.488 4.473 o
1 -1 2 744.640 634.412 26.016 2.979 o
1 -1 3 8332.790 8311.830 262.912 0.040 o
1 -1 4 57.227 58.236 11.473 38.624 o
1 -1 5 12261.900 12573.800 372.380 0.019 o
1 -1 6 39.945 43.711 3.800 94.529 o
1 -1 7 15470.400 15837.100 352.970 0.014 o
1 -1 8 6066.070 5836.610 133.967 0.087 o
1 -1 9 15737.100 15230.800 1745.950 0.003 o
1 -1 10 3916.770 4576.210 155.611 0.137 o
1 -1 11 1626.590 1737.680 67.983 0.684 o
1 -1 12 391.172 384.893 24.532 5.634 o
1 -1 13 411.206 425.598 27.050 4.974 o
1 -1 14 5303.320 6261.200 213.669 0.076 o
1 -1 15 4285.590 4638.330 164.956 0.122 o
1 -1 16 243.914 266.811 25.184 7.663 o
1 -1 17 563.724 623.305 40.740 2.724 o
1 -1 18 1508.740 1487.190 72.665 0.730 o
1 -1 19 1169.640 1161.340 25.543 1.574 o
1 -1 20 3148.700 3236.650 58.263 0.294 o
1 -1 21 47.292 48.006 5.025 76.247 o
1 -1 22 2145.730 2188.170 42.538 0.574 o
1 -1 23 1218.160 1288.880 28.215 1.413 o
1 -1 24 28.370 41.947 5.291 100.098 o
1 -1 25 184.441 158.844 8.088 19.547 o
1 -1 26 979.750 1016.080 22.966 2.016 o
1 -1 27 2720.000 2638.220 41.811 0.406 o
1 -1 28 2214.650 2195.840 42.141 0.555 o
1 -1 29 456.033 452.424 11.652 6.284 o
1 -1 30 1.026 4.896 2.593 868.973 o
1 -1 31 45.311 49.742 4.517 80.216 o
1 -1 32 127.203 117.923 6.829 28.888 o
1 -1 33 629.910 586.498 29.733 3.255 o
1 -1 34 2.368 1.594 1.746 1337.100 o
1 -1 35 70.740 50.478 8.621 45.778 o
1 0 0 2082.520 1815.140 59.765 0.583 o
1 0 1 8482.520 8576.320 190.689 0.044 o
1 0 2 24169.800 23576.100 519.383 0.006 o
1 0 3 9129.990 9256.820 167.457 0.041 o
1 0 4 1533.570 1547.420 36.553 0.981 o
1 0 5 18065.300 18132.500 564.615 0.009 o
1 0 6 21991.100 21564.700 480.122 0.007 o
1 0 7 103788.000 102293.000 2891.310 0.000 o
1 0 8 70912.100 69910.300 1519.130 0.001 o
1 0 9 4891.450 5233.780 173.860 0.100 o
1 0 10 2339.240 2519.700 90.708 0.373 o
1 0 11 12123.500 12453.400 400.269 0.019 o
1 0 12 17663.900 17953.700 406.177 0.011 o
1 0 13 8885.370 8462.890 234.281 0.039 o
1 0 14 2934.350 3121.480 82.725 0.291 o
1 0 15 4811.170 4905.380 176.741 0.104 o
1 0 16 1167.780 1265.890 62.407 1.023 o
1 0 17 270.969 342.825 21.082 7.886 o
1 0 18 15864.000 16959.800 395.695 0.012 o
1 0 19 2126.440 2286.750 78.817 0.455 o
1 0 20 2165.970 2186.950 43.586 0.565 o
1 0 21 10081.100 10198.600 234.646 0.031 o
1 0 22 3.063 15.634 3.916 327.506 o
1 0 23 683.155 701.618 16.023 3.515 o
1 0 24 188.582 193.140 8.387 17.892 o
1 0 25 333.290 309.566 10.576 9.499 o
1 0 26 72.237 64.655 4.921 54.497 o
1 0 27 590.579 576.618 12.726 4.505 o
1 0 28 178.013 167.487 7.065 20.313 o
1 0 29 630.862 678.964 18.365 3.705 o
1 0 30 187.796 222.616 6.500 17.861 o
1 0 31 763.191 835.954 17.247 2.909 o
1 0 32 38.477 39.200 2.764 107.075 o
1 0 33 424.957 429.566 15.721 6.327 o
1 0 34 22.773 21.242 3.591 163.571 o
1 1 0 34840.700 34754.100 1080.890 0.002 o
1 1 1 76836.100 75300.500 1652.170 0.001 o
1 1 2 2727.190 2732.550 63.515 0.365 o
1 1 3 4221.420 4068.830 92.873 0.171 o
1 1 4 1606.430 1517.260 37.035 0.944 o
1 1 5 44173.300 44082.900 922.388 0.002 o
1 1 6 32939.200 31672.300 569.663 0.003 o
1 1 7 50232.800 48362.900 866.634 0.001 o
1 1 8 7994.770 7689.990 175.837 0.051 o
1 1 9 12035.400 12581.600 400.334 0.019 o
1 1 10 5838.870 5748.870 189.860 0.078 o
1 1 11 5950.330 6315.570 209.020 0.070 o
1 1 12 9681.440 9184.250 213.411 0.036 o
1 1 13 3395.250 3194.780 119.940 0.211 o
1 1 14 5089.020 4634.810 167.084 0.105 o
1 1 15 301.097 264.089 24.339 7.190 o
1 1 16 1578.790 1621.950 74.353 0.675 o
1 1 17 3282.150 3608.550 100.930 0.225 o
1 1 18 3.285 9.871 3.295 447.759 o
1 1 19 3032.160 2928.350 74.222 0.302 o
1 1 20 1.097 2.134 3.097 803.747 o
1 1 21 1313.470 1352.520 24.366 1.320 o
1 1 22 1923.520 1877.510 42.395 0.692 o
1 1 23 1036.570 1143.180 20.931 1.839 o
1 1 24 1344.260 1330.060 21.732 1.321 o
1 1 25 60.375 72.743 4.767 59.070 o
1 1 26 13.863 17.483 3.510 224.024 o
1 1 27 727.099 791.716 15.264 3.174 o
1 1 28 143.410 158.543 6.045 24.762 o
1 1 29 1564.800 1663.200 26.920 0.984 o
1 1 30 1289.410 1372.340 24.954 1.329 o
1 1 31 30.297 30.634 3.256 129.449 o
1 1 32 950.861 1011.490 31.232 1.902 o
1 1 33 346.987 322.216 23.125 6.599 o
1 1 34 58.798 57.478 7.633 52.866 o
1 2 0 1230.650 1256.730 45.292 1.207 o
1 2 1 15904.000 16161.000 383.804 0.013 o
1 2 2 72261.000 71700.100 1286.030 0.001 o
1 2 3 7024.270 7104.200 111.875 0.069 o
1 2 4 629.954 588.125 13.942 4.165 o
1 2 5 20917.200 21153.500 409.814 0.008 o
1 2 6 195.019 222.966 19.416 11.085 o
1 2 7 169.407 160.617 10.098 19.247 o
1 2 8 1039.550 1051.180 68.454 1.066 o
1 2 9 1017.810 1246.890 46.163 1.379 o
1 2 10 9558.760 9225.610 617.459 0.017 o
1 2 11 122.629 141.365 15.413 18.326 o
1 2 12 47.877 37.353 10.617 47.805 o
1 2 13 21.482 7.275 3.771 199.252 o
1 2 14 0.376 26.915 4.669 243.210 o
1 2 15 2445.020 2610.020 66.697 0.408 o
1 2 16 2091.020 2205.630 58.414 0.537 o
1 2 17 24.344 24.107 3.328 156.632 o
1 2 18 2079.000 2029.550 56.347 0.569 o
1 2 19 485.860 479.891 12.271 5.773 o
1 2 20 259.382 286.728 8.002 12.424 o
1 2 21 19.626 22.563 3.511 175.777 o
1 2 22 3771.760 3873.920 56.892 0.219 o
1 2 23 1860.850 1891.410 31.187 0.755 o
1 2 24 293.625 347.611 9.238 10.238 o
1 2 25 3935.290 4128.920 92.353 0.182 o
1 2 26 0.745 2.960 2.842 904.908 o
1 2 27 212.293 237.598 6.694 15.898 o
1 2 28 1024.280 1134.140 18.681 1.898 o
1 2 29 110.797 102.845 4.641 35.857 o
1 2 30 1380.080 1499.630 24.388 1.192 o
1 2 31 135.636 149.768 5.246 26.866 o
1 2 32 16.101 12.709 2.060 273.764 o
1 2 33 740.021 812.401 29.822 2.577 o
1 3 0 1863.340 1804.700 66.901 0.611 o
1 3 1 1791.080 1714.610 45.468 0.759 o
1 3 2 10552.500 10503.900 360.042 0.024 o
1 3 3 2876.360 2962.170 236.616 0.124 o
1 3 4 660.250 554.567 44.224 2.400 o
1 3 5 3534.790 3479.740 274.377 0.091 o
1 3 6 338.310 350.701 15.005 8.151 o
1 3 7 2968.330 2995.740 245.662 0.116 o
1 3 8 4005.400 4218.330 383.843 0.052 o
1 3 9 3356.190 3093.170 347.156 0.067 o
1 3 10 13924.100 15244.600 267.869 0.017 o
1 3 11 10826.100 11199.600 263.882 0.027 o
1 3 12 2521.980 2314.740 49.060 0.458 o
1 3 13 1545.990 1552.970 35.768 0.977 o
1 3 14 2042.020 1950.020 43.624 0.635 o
1 3 15 15.783 2.975 4.076 243.664 o
1 3 16 96.499 124.159 6.283 34.482 o
1 3 17 384.850 358.933 12.083 7.819 o
1 3 18 3593.990 3767.060 55.383 0.236 o
1 3 19 4149.190 4254.000 55.845 0.187 o
1 3 20 586.347 598.129 15.819 4.297 o
1 3 21 1136.270 1198.830 25.552 1.593 o
1 3 22 15.443 18.753 3.175 218.809 o
1 3 23 783.226 748.257 16.720 3.005 o
1 3 24 655.611 755.621 14.797 3.564 o
1 3 25 196.482 181.688 5.825 18.948 o
1 3 26 1526.420 1573.340 37.136 0.974 o
1 3 27 38.295 33.590 3.871 104.188 o
1 3 28 0.286 2.502 2.610 1131.610 o
1 3 29 2147.010 2348.610 36.388 0.567 o
1 3 30 5.389 7.320 2.287 554.699 o
1 3 31 110.001 96.695 6.431 34.312 o
1 3 32 59.645 65.484 6.524 55.060 o
1 3 33 177.997 170.130 8.610 19.286 o
1 4 0 16820.300 17330.600 390.337 0.011 o
1 4 1 151.475 109.607 21.274 12.828 o
1 4 2 4112.350 4304.360 105.133 0.164 o
1 4 3 2.904 15.325 4.879 260.704 o
1 4 4 3374.990 3284.690 82.900 0.248 o
1 4 5 917.233 933.299 79.028 0.992 o
1 4 6 38427.600 42213.000 2569.030 0.001 o
1 4 7 24693.200 24631.600 1489.530 0.003 o
1 4 8 20360.500 20019.300 442.583 0.008 o
1 4 9 215.079 253.424 9.060 14.531 o
1 4 10 14.198 14.291 3.013 252.375 o
1 4 11 3.608 3.974 3.165 563.202 o
1 4 12 3473.730 3578.410 84.304 0.229 o
1 4 13 3068.490 3036.470 65.647 0.304 o
1 4 14 5584.360 5725.460 139.125 0.094 o
1 4 15 165.601 168.479 7.644 20.952 o
1 4 16 7141.300 7165.210 204.321 0.056 o
1 4 17 1384.030 1434.980 31.393 1.163 o
1 4 18 26.123 27.109 2.822 152.170 o
1 4 19 320.581 262.378 6.653 11.120 o
1 4 20 346.637 377.657 11.356 8.418 o
1 4 21 3367.800 3556.430 50.225 0.265 o
1 4 22 3649.570 3613.130 49.053 0.241 o
1 4 23 49.915 50.063 4.311 76.697 o
1 4 24 1593.140 1700.000 37.300 0.899 o
1 4 25 709.850 791.218 17.339 3.174 o
1 4 26 0.153 5.895 3.183 699.124 o
1 4 27 126.989 126.053 5.472 29.688 o
1 4 28 70.287 68.892 3.701 57.638 o
1 4 29 26.493 23.197 2.513 162.004 o
1 4 30 10.376 13.348 2.792 311.486 o
1 4 31 30.908 33.525 4.061 116.121 o
1 4 32 5.222 6.637 3.322 435.311 o
1 5 0 5999.100 6179.750 151.441 0.082 o
1 5 1 13446.900 14045.700 321.336 0.017 o
1 5 2 20154.100 22663.800 722.910 0.006 o
1 5 3 1771.700 2239.090 118.300 0.376 o
1 5 4 10712.500 11924.700 257.046 0.026 o
1 5 5 1223.340 1729.720 47.504 1.024 o
1 5 6 3714.560 3495.680 84.815 0.216 o
1 5 7 4307.510 4528.420 109.105 0.150 o
1 5 8 4610.560 4795.480 96.521 0.141 o
1 5 9 27304.800 27843.400 512.269 0.005 o
1 5 10 394.411 457.863 10.528 7.132 o
1 5 11 3864.020 3693.820 72.376 0.210 o
1 5 12 6.707 54.585 8.228 86.520 o
1 5 13 595.576 604.919 10.787 4.468 o
1 5 14 1939.940 1850.900 24.484 0.751 o
1 5 15 731.950 627.254 11.159 3.626 o
1 5 16 1276.040 1323.560 18.845 1.417 o
1 5 17 963.247 1006.370 28.659 1.942 o
1 5 18 1674.680 1629.670 36.263 0.881 o
1 5 19 1590.390 1557.520 26.048 1.006 o
1 5 20 1404.560 1448.070 24.657 1.192 o
1 5 21 1.369 1.341 2.805 944.838 o
1 5 22 11.116 26.720 3.760 203.432 o
1 5 23 138.555 147.749 6.260 25.828 o
1 5 24 1.287 3.340 3.056 750.373 o
1 5 25 255.823 299.726 8.733 12.143 o
1 5 26 1.188 2.299 2.739 939.099 o
1 5 27 1.041 1.719 2.985 876.857 o
1 5 28 14.277 6.872 2.515 316.143 o
1 5 29 112.315 117.118 6.589 31.689 o
1 5 30 4.054 0.345 4.321 412.335 o
1 5 31 0.376 0.481 3.249 894.140 o
1 6 0 188.511 48.022 7.290 24.939 o
1 6 1 1519.100 1873.760 81.463 0.612 o
1 6 2 3706.100 4865.660 123.562 0.158 o
1 6 3 5240.990 6089.250 150.950 0.094 o
1 6 4 625.013 787.877 43.978 2.258 o
1 6 5 318.232 497.094 19.298 6.638 o
1 6 6 241.269 176.029 9.427 14.965 o
1 6 7 2509.910 2361.040 80.559 0.386 o
1 6 8 3377.770 3503.650 74.275 0.247 o
1 6 9 5851.140 5848.730 166.720 0.083 o
1 6 10 0.283 16.318 3.788 383.609 o
1 6 11 11926.400 11849.500 154.367 0.026 o
1 6 12 3421.720 3221.660 42.588 0.281 o
1 6 13 390.652 374.138 8.112 8.092 o
1 6 14 2545.300 2434.750 45.087 0.449 o
1 6 15 2796.090 2787.660 39.506 0.385 o
1 6 16 4838.460 4799.210 62.186 0.144 o
1 6 17 2641.960 2503.490 35.360 0.440 o
1 6 18 50.785 73.531 4.014 67.566 o
1 6 19 36.064 37.753 3.281 109.142 o
1 6 20 226.399 214.402 6.772 15.739 o
1 6 21 92.666 117.628 5.255 37.589 o
1 6 22 163.897 173.129 9.645 19.521 o
1 6 23 9.149 10.669 3.145 328.647 o
1 6 24 12.973 13.631 4.130 221.533 o
1 6 25 182.531 216.905 15.678 13.475 o
1 6 26 438.935 516.110 17.655 5.539 o
1 6 27 21.543 19.910 3.557 172.174 o
1 6 28 62.950 53.974 3.477 67.612 o
1 6 29 37.217 38.179 3.994 101.227 o
1 6 30 3.427 7.189 2.183 681.852 o
1 7 0 3581.530 4292.860 142.562 0.160 o
1 7 1 380.449 567.160 22.376 5.274 o
1 7 2 2646.770 2858.240 67.466 0.360 o
1 7 3 1123.250 1225.880 60.901 1.079 o
1 7 4 0.201 -0.065 5.938 287.992 o
1 7 5 65.617 70.974 10.438 38.370 o
1 7 6 25.477 70.834 10.645 49.760 o
1 7 7 1363.700 1522.840 72.487 0.775 o
1 7 8 4203.170 4286.980 161.012 0.130 o
1 7 9 1168.510 1270.350 31.201 1.441 o
1 7 10 510.458 508.332 13.118 5.350 o
1 7 11 310.157 354.852 12.560 9.121 o
1 7 12 660.630 646.390 14.261 3.824 o
1 7 13 1470.730 1472.750 26.661 1.116 o
1 7 14 413.613 419.174 10.959 7.088 o
1 7 15 3806.210 3768.350 59.541 0.219 o
1 7 16 1469.060 1499.340 27.043 1.105 o
1 7 17 254.021 252.550 9.843 12.713 o
1 7 18 829.228 868.995 21.135 2.555 o
1 7 19 1787.380 1757.880 31.922 0.815 o
1 7 20 419.341 466.971 13.936 6.389 o
1 7 21 314.466 381.564 33.569 4.792 o
1 7 22 8.134 5.838 4.943 252.053 o
1 7 23 642.456 664.428 21.903 3.505 o
1 7 24 2.491 -1.134 6.253 239.633 o
1 7 26 47.669 41.661 4.753 80.533 o
1 7 27 962.423 990.884 25.887 2.014 o
1 7 28 33.055 27.284 3.016 129.163 o
1 7 29 579.104 430.669 16.030 4.894 o
1 8 0 795.865 787.992 29.040 2.497 o
1 8 1 4043.350 4150.050 126.483 0.157 o
1 8 2 2910.610 3002.200 72.860 0.313 o
1 8 3 764.650 794.854 29.556 2.547 o
1 8 4 5214.310 6156.850 110.742 0.104 o
1 8 5 1262.550 1314.090 28.567 1.350 o
1 8 6 2970.180 2972.670 82.668 0.295 o
1 8 7 2581.480 2635.240 39.581 0.433 o
1 8 8 961.942 925.938 17.041 2.249 o
1 8 9 1591.150 1530.420 28.106 1.003 o
1 8 10 3277.380 3418.790 63.265 0.269 o
1 8 11 1723.140 1847.560 32.096 0.823 o
1 8 12 1665.110 1658.730 29.593 0.913 o
1 8 13 98.763 97.933 5.213 38.596 o
1 8 14 145.108 164.022 6.587 23.871 o
1 8 15 453.777 457.573 11.376 6.305 o
1 8 16 4.303 11.648 3.422 385.934 o
1 8 17 1714.400 1760.800 35.884 0.831 o
1 8 18 274.621 254.848 11.168 11.593 o
1 8 19 83.443 81.557 5.530 44.976 o
1 8 20 345.726 357.838 10.627 8.735 o
1 8 21 231.458 216.342 15.339 12.002 o
1 8 22 381.641 334.110 13.431 7.862 o
1 8 23 113.446 131.055 11.582 23.885 o
1 8 24 514.328 478.401 22.541 4.621 o
1 8 25 101.277 88.153 5.405 38.912 o
1 8 26 20.701 19.058 2.702 196.171 o
1 8 27 57.539 40.067 9.693 48.044 o
1 9 0 6130.180 5975.740 93.177 0.092 o
1 9 1 1088.220 1194.330 22.031 1.706 o
1 9 2 3108.500 3059.880 42.861 0.322 o
1 9 3 369.632 327.684 8.131 8.917 o
1 9 4 71.110 61.984 5.298 54.577 o
1 9 5 92.635 107.158 4.686 39.780 o
1 9 6 769.778 800.372 14.804 3.014 o
1 9 7 2691.180 2799.990 37.863 0.402 o
1 9 8 7250.230 7392.730 145.757 0.061 o
1 9 9 1694.120 1728.810 34.282 0.856 o
1 9 10 651.042 634.522 16.023 3.827 o
1 9 11 45.757 51.012 4.359 80.001 o
1 9 12 10.893 13.795 3.223 279.976 o
1 9 13 87.962 116.760 6.133 37.467 o
1 9 14 397.876 397.537 10.903 7.475 o
1 9 15 2196.160 2133.340 37.094 0.581 o
1 9 16 311.773 321.736 9.710 10.019 o
1 9 17 517.461 508.867 21.229 4.622 o
1 9 18 22.768 19.881 3.795 162.372 o
1 9 19 7.429 6.095 3.428 377.985 o
1 9 20 44.318 46.103 6.554 70.274 o
1 9 21 243.306 233.740 8.686 13.862 o
1 9 22 74.885 80.013 6.041 47.053 o
1 9 23 1364.230 1381.080 49.770 1.022 o
1 9 24 67.422 50.853 6.291 55.727 o
1 9 25 95.429 98.288 4.211 40.912 o
1 10 0 145.638 160.300 5.660 24.672 o
1 10 1 5024.640 4953.400 72.249 0.133 o
1 10 2 3121.500 3118.590 48.523 0.312 o
1 10 3 628.946 669.540 13.279 3.970 o
1 10 4 4459.690 4417.230 78.247 0.160 o
1 10 5 370.727 376.749 9.271 8.287 o
1 10 6 151.179 176.662 6.217 22.833 o
1 10 7 20.417 17.682 2.688 202.183 o
1 10 8 4338.520 4019.930 55.109 0.184 o
1 10 9 976.609 867.152 15.436 2.309 o
1 10 10 521.377 522.221 11.999 5.273 o
1 10 11 691.467 670.121 16.003 3.549 o
1 10 12 1780.590 1713.270 31.940 0.828 o
1 10 13 3462.690 3331.390 57.195 0.262 o
1 10 14 503.889 500.609 12.545 5.484 o
1 10 15 7.029 11.306 3.244 351.622 o
1 10 16 1846.380 1844.340 38.876 0.741 o
1 10 17 144.215 150.844 7.098 24.294 o
1 10 18 37.062 24.606 3.487 118.396 o
1 10 19 57.843 61.225 4.730 64.281 o
1 10 20 144.213 157.779 4.794 25.550 o
1 10 21 548.470 535.873 15.454 4.775 o
1 10 23 15.268 15.117 4.082 203.253 o
1 10 24 25.405 9.553 2.787 194.717 o
1 11 0 852.571 817.679 24.692 2.461 o
1 11 1 1931.600 1968.370 38.362 0.688 o
1 11 2 853.986 840.875 18.574 2.592 o
1 11 3 429.372 398.481 14.801 6.569 o
1 11 4 303.533 266.936 8.722 11.166 o
1 11 5 448.932 418.131 9.918 6.729 o
1 11 6 127.437 117.784 5.324 30.433 o
1 11 7 10.015 6.922 2.748 374.762 o
1 11 8 360.681 371.236 8.747 8.588 o
1 11 9 1020.050 964.221 20.110 2.038 o
1 11 10 27.015 47.005 3.592 115.012 o
1 11 11 3.750 11.850 2.672 480.945 o
1 11 12 26.125 18.381 3.149 163.690 o
1 11 13 1961.100 1995.290 33.956 0.687 o
1 11 14 1548.980 1556.250 25.485 1.037 o
1 11 15 1.173 3.589 6.369 228.087 o
1 11 16 246.244 281.935 11.333 12.008 o
1 11 17 347.301 372.440 19.117 7.072 o
1 11 18 1381.150 1399.320 62.045 0.887 o
1 11 19 278.201 251.489 8.738 12.200 o
1 11 20 52.432 32.644 7.236 65.081 o
1 11 21 28.075 34.432 5.330 106.214 o
1 11 22 669.582 387.002 15.207 4.473 o
1 12 0 30.959 75.073 8.495 57.942 o
1 12 1 176.006 175.014 7.148 20.124 o
1 12 2 141.721 151.432 9.905 22.022 o
1 12 3 290.490 237.518 9.827 11.745 o
1 12 4 2031.430 2002.520 42.093 0.636 o
1 12 5 440.897 387.718 21.517 5.626 o
1 12 6 5.514 6.116 3.968 362.145 o
1 12 7 1509.340 1408.570 47.847 0.948 o
1 12 8 989.431 993.793 22.823 2.021 o
1 12 9 77.718 77.367 4.765 49.610 o
1 12 10 1219.080 1225.500 50.807 1.155 o
1 12 11 110.226 130.220 6.771 30.684 o
1 12 12 361.427 352.377 9.166 8.700 o
1 12 13 100.952 95.892 5.480 37.891 o
1 12 14 33.938 32.010 3.606 116.051 o
1 12 15 1247.540 1160.120 40.343 1.298 o
1 12 16 127.280 132.333 7.138 27.501 o
1 12 17 2.287 3.243 2.841 743.887 o
1 12 18 76.127 67.726 5.671 49.956 o
1 12 19 2.173 6.696 3.344 532.298 o
1 12 20 1030.640 836.139 28.872 1.967 o
1 13 0 3.099 5.939 3.102 554.131 o
1 13 1 3152.130 2937.800 73.633 0.291 o
1 13 2 612.502 646.307 22.668 3.633 o
1 13 3 557.093 675.728 17.855 4.123 o
1 13 4 850.726 920.666 29.660 2.207 o
1 13 5 86.461 98.987 6.970 38.494 o
1 13 6 68.730 70.617 5.296 53.655 o
1 13 7 2.355 7.553 3.809 436.500 o
1 13 8 2379.790 2527.750 61.879 0.436 o
1 13 9 815.180 894.136 32.492 2.221 o
1 13 10 0.029 -0.736 3.145 1030.900 o
1 13 11 737.652 691.307 16.511 3.289 o
1 13 12 240.818 236.643 9.011 13.798 o
1 13 13 47.791 55.514 11.137 42.675 o
1 13 14 898.515 948.509 25.306 2.193 o
1 13 15 306.138 285.434 11.078 10.320 o
1 13 16 525.436 490.663 13.201 5.291 o
1 13 17 2.535 0.759 2.292 1078.280 o
1 14 0 1096.230 1104.190 32.484 1.604 o
1 14 1 1388.470 1514.580 28.657 1.149 o
1 14 2 1514.010 1562.480 36.252 0.991 o
1 14 3 159.990 178.216 8.983 20.097 o
1 14 4 514.459 575.687 15.149 4.899 o
1 14 5 4.617 4.252 3.294 494.706 o
1 14 6 201.328 216.700 10.036 15.655 o
1 14 7 56.272 65.348 5.028 62.815 o
1 14 8 414.786 419.282 17.486 6.267 o
1 14 9 1052.090 1138.240 24.172 1.772 o
1 14 10 39.953 44.793 3.341 96.676 o
1 14 11 496.388 503.988 13.998 5.424 o
1 14 12 39.143 44.422 3.098 99.633 o
1 14 13 118.977 111.162 4.028 33.832 o
1 15 0 360.441 383.485 10.942 8.185 o
1 15 1 305.018 330.228 6.956 10.557 o
1 15 2 250.920 260.049 6.510 13.610 o
1 15 3 126.220 136.708 4.459 29.822 o
1 15 4 255.036 240.369 5.894 13.993 o
1 15 5 588.613 581.254 11.456 4.565 o
1 15 6 1122.530 1114.830 20.144 1.737 o
1 15 7 113.965 108.851 4.385 34.779 o
1 15 8 260.840 232.088 15.149 11.007 o
1 15 9 307.599 286.407 9.281 10.662 o
1 16 0 284.357 277.176 10.521 11.152 o
1 16 1 884.330 755.220 88.058 0.905 o
1 16 2 172.837 148.933 5.892 22.262 o
1 16 3 935.252 864.380 30.266 2.080 o
2 -17 0 479.262 441.198 13.193 5.955 o
2 -17 1 5.540 8.640 2.956 442.026 o
2 -17 2 305.290 298.267 19.953 7.992 o
2 -17 3 34.669 38.511 3.727 107.387 o
2 -17 4 25.242 30.119 3.760 137.576 o
2 -17 5 293.782 246.803 61.856 2.216 o
2 -17 6 6.254 10.425 2.116 481.371 o
2 -17 7 1347.050 1319.430 60.199 0.940 o
2 -17 8 142.193 140.461 6.063 25.988 o
2 -17 9 483.258 404.373 16.299 5.789 o
2 -17 10 690.381 614.868 22.864 3.360 o
2 -17 11 9.195 9.548 3.322 324.701 o
2 -17 12 903.409 792.933 31.343 2.181 o
2 -17 13 0.165 2.357 1.926 1808.720 o
2 -17 14 1282.860 1083.220 36.631 1.350 o
2 -17 15 626.244 408.841 15.219 4.690 o
2 -16 0 695.732 743.653 21.807 3.144 o
2 -16 1 37.874 36.585 4.971 93.341 o
2 -16 2 13.805 11.006 2.785 282.842 o
2 -16 3 176.896 180.647 11.146 17.370 o
2 -16 4 1.004 0.744 2.763 1062.790 o
2 -16 5 123.476 149.716 6.346 27.614 o
2 -16 6 15.618 13.633 4.049 206.749 o
2 -16 7 2.255 10.158 5.025 284.695 o
2 -16 8 33.902 39.544 3.787 107.324 o
2 -16 9 1.463 4.259 2.897 751.358 o
2 -16 10 378.260 372.431 25.337 5.670 o
2 -16 11 4.337 10.266 3.346 408.825 o
2 -16 12 170.012 172.289 6.131 21.311 o
2 -16 13 368.093 360.081 9.575 8.447 o
2 -16 14 36.230 34.300 3.081 113.649 o
2 -16 15 783.857 755.356 18.829 2.927 o
2 -16 16 95.509 76.763 4.574 43.621 o
2 -16 17 349.092 321.518 13.860 8.439 o
2 -16 18 705.156 704.943 25.386 3.022 o
2 -16 19 25.933 21.849 3.341 154.765 o
2 -16 20 294.355 203.693 8.546 12.518 o
2 -15 0 331.636 346.595 11.766 8.926 o
2 -15 1 922.068 933.344 24.305 2.183 o
2 -15 2 1614.740 1651.710 34.095 0.919 o
2 -15 3 291.699 326.184 9.946 10.418 o
2 -15 4 409.243 416.813 11.743 7.076 o
2 -15 5 968.663 974.981 22.364 2.087 o
2 -15 6 1263.770 1266.580 23.781 1.421 o
2 -15 7 264.201 253.595 7.311 13.020 o
2 -15 8 1099.840 1077.530 26.825 1.707 o
2 -15 9 163.548 173.702 6.196 21.796 o
2 -15 10 408.908 424.497 18.971 6.099 o
2 -15 11 1174.090 1103.970 23.831 1.627 o
2 -15 12 1.592 3.361 2.993 746.074 o
2 -15 13 486.028 489.523 12.583 5.700 o
2 -15 14 75.148 71.114 4.020 53.840 o
2 -15 15 156.138 152.251 6.684 23.257 o
2 -15 16 733.159 684.795 20.706 3.160 o
2 -15 17 90.153 95.515 4.705 42.143 o
2 -15 18 42.423 35.041 2.854 103.343 o
2 -15 19 186.430 157.225 4.877 21.130 o
2 -15 20 320.132 308.658 7.074 10.425 o
2 -15 21 176.539 194.776 6.380 19.707 o
2 -15 22 8.730 10.905 1.828 423.867 o
2 -14 0 235.091 245.912 9.240 13.765 o
2 -14 1 218.496 204.322 10.930 14.707 o
2 -14 2 3957.260 4210.460 77.985 0.188 o
2 -14 3 625.245 620.242 16.239 3.989 o
2 -14 4 4.983 5.988 2.900 510.272 o
2 -14 5 210.157 235.441 13.527 13.207 o
2 -14 6 2162.600 2297.230 52.462 0.528 o
2 -14 7 13.622 22.618 3.048 221.779 o
2 -14 8 7.070 10.224 2.397 433.916 o
2 -14 9 118.374 135.781 4.361 31.313 o
2 -14 10 1615.420 1665.590 30.681 0.933 o
2 -14 11 2108.350 2099.150 46.169 0.585 o
2 -14 12 1127.250 1156.270 20.404 1.697 o
2 -14 13 16.865 18.012 2.857 220.406 o
2 -14 14 521.623 537.562 10.233 5.313 o
2 -14 15 703.472 728.044 18.362 3.284 o
2 -14 16 681.429 715.163 16.087 3.490 o
2 -14 17 1849.540 1934.480 30.568 0.753 o
2 -14 18 110.728 111.533 6.583 32.497 o
2 -14 19 24.303 30.308 3.291 146.652 o
2 -14 20 1523.300 1669.580 26.209 1.012 o
2 -14 21 51.457 53.806 3.572 76.873 o
2 -14 22 4.980 6.483 2.277 595.406 o
2 -14 23 4.256 5.096 3.948 401.244 o
2 -14 24 55.574 52.104 3.023 75.914 o
2 -14 25 368.148 343.041 25.933 5.782 o
2 -13 0 175.770 159.453 6.003 21.439 o
2 -13 1 74.825 84.397 5.383 47.908 o
2 -13 2 501.274 499.100 13.252 5.461 o
2 -13 3 95.443 109.645 4.528 38.914 o
2 -13 4 551.899 516.385 11.908 5.051 o
2 -13 5 1571.450 1546.690 32.798 0.983 o
2 -13 6 1045.950 1058.290 21.700 1.883 o
2 -13 7 1615.250 1625.550 23.019 0.982 o
2 -13 8 608.999 601.390 9.581 4.439 o
2 -13 9 1943.270 1999.300 26.169 0.715 o
2 -13 10 155.162 143.786 4.261 25.371 o
2 -13 11 414.709 413.473 8.589 7.348 o
2 -13 12 9.589 17.067 2.715 300.728 o
2 -13 13 19.233 29.320 4.125 151.735 o
2 -13 14 59.509 53.945 4.024 68.322 o
2 -13 15 2090.830 2252.980 40.158 0.586 o
2 -13 16 44.042 43.133 4.201 87.080 o
2 -13 17 1.177 2.306 2.265 1201.540 o
2 -13 18 44.193 58.795 3.582 81.552 o
2 -13 19 60.865 54.027 3.259 69.850 o
2 -13 20 1521.800 1592.640 30.690 1.013 o
2 -13 21 16.652 20.438 2.774 215.549 o
2 -13 22 6.904 11.290 2.280 433.936 o
2 -13 23 4870.670 5197.050 93.371 0.128 o
2 -13 24 10.460 12.476 2.507 332.022 o
2 -13 25 128.130 123.517 4.942 30.191 o
2 -13 26 31.837 25.184 2.237 142.880 o
2 -13 27 426.522 421.686 10.621 6.931 o
2 -12 0 2704.220 2790.920 42.761 0.395 o
2 -12 1 2448.350 2682.920 37.895 0.456 o
2 -12 2 3122.800 3302.210 43.978 0.306 o
2 -12 3 1489.360 1519.140 28.238 1.075 o
2 -12 4 209.189 228.826 7.120 16.156 o
2 -12 5 4029.430 4046.130 57.773 0.198 o
2 -12 6 691.387 758.653 12.168 3.481 o
2 -12 7 24.385 29.103 3.373 147.200 o
2 -12 8 7553.440 7695.900 98.049 0.061 o
2 -12 9 1739.240 1827.200 29.700 0.830 o
2 -12 10 132.273 127.183 4.765 29.373 o
2 -12 11 7.573 9.678 2.473 421.191 o
2 -12 12 268.250 287.008 6.428 12.450 o
2 -12 13 1444.670 1370.840 20.473 1.217 o
2 -12 14 2495.090 2506.650 34.098 0.470 o
2 -12 15 465.300 461.734 9.335 6.314 o
2 -12 16 4461.010 4600.850 66.460 0.161 o
2 -12 17 59.847 69.820 4.052 62.535 o
2 -12 18 871.170 950.646 17.095 2.434 o
2 -12 19 16.560 15.564 2.756 234.920 o
2 -12 20 510.488 561.783 11.253 5.245 o
2 -12 21 555.316 603.390 13.318 4.622 o
2 -12 22 18.377 26.966 2.930 182.991 o
2 -12 23 13.248 17.434 2.864 252.053 o
2 -12 24 2757.050 3088.000 53.590 0.352 o
2 -12 25 506.900 546.682 16.025 5.001 o
2 -12 26 3.455 11.706 2.472 519.198 o
2 -12 27 0.092 5.802 3.323 664.993 o
2 -12 28 25.675 23.632 2.467 165.002 o
2 -12 29 1212.330 1068.930 26.206 1.571 o
2 -11 0 1203.020 1229.320 19.557 1.554 o
2 -11 1 1420.370 1500.990 25.659 1.150 o
2 -11 2 3253.440 3514.040 44.191 0.282 o
2 -11 3 2685.750 2766.300 35.669 0.409 o
2 -11 4 4444.710 4458.080 62.562 0.166 o
2 -11 5 750.510 755.313 15.688 3.142 o
2 -11 6 1572.440 1509.330 29.944 1.011 o
2 -11 7 38.494 28.766 2.684 117.668 o
2 -11 8 1635.100 1662.480 27.504 0.939 o
2 -11 9 47.855 38.718 3.349 90.044 o
2 -11 10 688.515 724.802 13.736 3.521 o
2 -11 11 9104.920 9254.180 123.434 0.043 o
2 -11 12 4725.640 4775.320 66.257 0.148 o
2 -11 13 3185.350 3298.200 47.140 0.297 o
2 -11 14 3.133 13.767 2.850 449.477 o
2 -11 15 1202.520 1286.590 19.475 1.519 o
2 -11 16 487.224 479.996 9.644 5.952 o
2 -11 17 2719.910 2765.390 46.401 0.389 o
2 -11 18 322.873 341.047 9.720 9.534 o
2 -11 19 351.961 326.277 8.201 9.292 o
2 -11 20 66.097 57.369 4.438 61.295 o
2 -11 21 1.361 1.276 2.418 1169.830 o
2 -11 22 59.526 76.320 5.608 55.760 o
2 -11 23 258.550 270.965 7.949 12.749 o
2 -11 24 59.745 70.655 4.192 61.902 o
2 -11 25 309.893 309.950 6.541 10.763 o
2 -11 26 18.791 16.347 2.242 227.670 o
2 -11 27 1193.780 1277.300 31.235 1.410 o
2 -11 28 83.533 93.183 4.173 45.571 o
2 -11 29 286.288 335.838 8.109 10.798 o
2 -11 30 457.799 481.329 12.081 6.069 o
2 -11 31 3.392 5.158 2.223 749.983 o
2 -10 0 944.316 993.496 15.865 2.232 o
2 -10 1 726.162 684.061 12.390 3.486 o
2 -10 2 306.969 342.017 7.639 10.247 o
2 -10 3 8724.820 8706.290 147.419 0.045 o
2 -10 4 13885.900 13832.200 226.086 0.019 o
2 -10 5 3096.010 3218.530 60.078 0.298 o
2 -10 6 1852.040 1856.820 31.272 0.766 o
2 -10 7 8133.950 8128.730 119.813 0.053 o
2 -10 8 5052.480 4822.690 66.904 0.136 o
2 -10 9 2648.270 2527.370 38.864 0.432 o
2 -10 10 2844.130 2854.200 39.512 0.373 o
2 -10 11 6964.980 6968.710 103.090 0.071 o
2 -10 12 56.311 43.475 3.884 75.836 o
2 -10 13 542.177 502.530 10.620 5.264 o
2 -10 14 3.109 9.423 2.847 524.332 o
2 -10 15 1053.640 1043.790 20.653 1.898 o
2 -10 16 5825.530 5962.400 95.199 0.097 o
2 -10 17 14.775 16.992 3.669 214.021 o
2 -10 18 102.035 95.115 5.366 37.892 o
2 -10 19 1.832 -1.360 3.230 781.810 o
2 -10 20 729.323 770.016 16.886 3.156 o
2 -10 21 200.705 214.768 11.360 15.079 o
2 -10 22 938.535 936.050 19.101 2.253 o
2 -10 23 202.934 195.989 10.993 15.615 o
2 -10 24 15.625 13.604 4.608 188.392 o
2 -10 25 198.497 235.672 10.393 15.158 o
2 -10 26 2.533 0.116 2.639 953.538 o
2 -10 27 48.191 42.119 3.460 86.978 o
2 -10 28 40.566 32.814 3.415 104.578 o
2 -10 29 29.140 31.248 3.739 126.170 o
2 -10 30 79.194 60.956 2.828 56.801 o
2 -10 31 5.801 10.067 1.443 570.577 o
2 -10 32 0.564 1.521 1.478 2491.790 o
2 -9 0 2263.160 2229.720 150.017 0.258 o
2 -9 1 4576.980 4208.710 181.113 0.113 o
2 -9 2 6173.570 6112.670 191.618 0.072 o
2 -9 3 2999.610 3198.620 113.902 0.241 o
2 -9 4 4117.970 3956.710 183.692 0.124 o
2 -9 5 2988.440 3019.180 89.621 0.281 o
2 -9 6 178.473 123.275 9.300 20.582 o
2 -9 7 1974.720 2143.600 67.823 0.538 o
2 -9 8 1154.820 1170.670 37.365 1.423 o
2 -9 9 8669.130 8572.120 127.368 0.047 o
2 -9 10 2432.340 2509.200 40.813 0.472 o
2 -9 11 9.732 20.444 2.636 281.632 o
2 -9 12 272.030 269.803 6.201 12.668 o
2 -9 13 2907.400 2808.110 37.074 0.369 o
2 -9 14 205.413 219.944 6.262 16.933 o
2 -9 15 1457.610 1462.540 25.824 1.135 o
2 -9 16 4282.130 4210.650 58.435 0.180 o
2 -9 17 445.627 457.366 10.279 6.497 o
2 -9 18 2.260 12.895 2.946 478.263 o
2 -9 19 6306.620 6341.170 92.246 0.086 o
2 -9 20 1117.440 1090.180 19.646 1.770 o
2 -9 21 4028.620 3869.200 58.200 0.203 o
2 -9 22 1698.970 1652.500 29.383 0.897 o
2 -9 23 20.469 37.032 3.952 138.590 o
2 -9 24 3967.280 4114.880 77.639 0.190 o
2 -9 25 384.385 405.471 11.259 7.575 o
2 -9 26 1.102 4.473 2.691 845.969 o
2 -9 27 514.790 578.023 17.976 4.679 o
2 -9 28 134.780 157.105 8.501 23.743 o
2 -9 29 787.948 785.010 34.155 2.334 o
2 -9 30 0.254 0.026 3.323 895.556 o
2 -9 31 451.111 415.532 24.485 5.056 o
2 -9 32 238.535 212.951 10.305 13.915 o
2 -8 0 613.565 492.748 43.690 2.588 o
2 -8 1 4752.490 4315.140 155.313 0.119 o
2 -8 2 3540.440 3142.890 113.061 0.211 o
2 -8 3 8455.720 7739.570 151.017 0.050 o
2 -8 4 8928.050 9138.620 176.193 0.041 o
2 -8 5 228.450 242.476 13.835 12.316 o
2 -8 6 12482.200 12624.300 240.141 0.022 o
2 -8 7 8369.260 8291.980 164.050 0.048 o
2 -8 8 16930.000 17023.700 320.298 0.012 o
2 -8 9 2444.380 2545.740 71.426 0.403 o
2 -8 10 7138.100 7370.430 184.308 0.058 o
2 -8 11 16662.000 16260.800 527.514 0.010 o
2 -8 12 1062.690 1101.740 22.658 1.806 o
2 -8 13 3785.960 3555.370 50.565 0.232 o
2 -8 14 2363.880 2617.460 33.047 0.488 o
2 -8 15 1755.560 1822.270 23.670 0.845 o
2 -8 16 9528.540 9345.350 112.768 0.041 o
2 -8 17 8503.060 8147.890 98.957 0.051 o
2 -8 18 388.735 431.223 8.386 7.627 o
2 -8 19 5.749 6.767 2.412 534.063 o
2 -8 20 229.419 277.124 6.766 14.095 o
2 -8 21 84.138 71.194 3.601 50.602 o
2 -8 22 3601.500 3620.650 46.358 0.246 o
2 -8 23 96.254 111.585 4.694 38.231 o
2 -8 24 1413.980 1397.110 24.482 1.206 o
2 -8 25 2119.190 2197.770 62.885 0.517 o
2 -8 26 590.810 609.325 12.342 4.416 o
2 -8 27 323.063 352.062 10.555 9.264 o
2 -8 28 2.826 3.788 1.768 1023.440 o
2 -8 29 29.438 30.146 4.331 119.699 o
2 -8 30 2106.540 2155.350 51.373 0.562 o
2 -8 31 35.359 55.907 4.969 84.638 o
2 -8 32 188.345 152.599 8.071 19.498 o
2 -8 33 0.631 1.050 2.034 1759.410 o
2 -7 0 32.052 47.759 8.408 65.929 o
2 -7 1 3172.040 3063.520 141.659 0.202 o
2 -7 2 1215.010 1019.530 31.394 1.527 o
2 -7 3 6.202 17.467 7.376 134.120 o
2 -7 4 5545.450 5276.660 127.886 0.102 o
2 -7 5 212.584 213.573 22.276 9.567 o
2 -7 6 2433.140 2349.500 54.469 0.460 o
2 -7 7 258.395 247.399 10.621 12.405 o
2 -7 8 4662.780 4537.250 81.301 0.149 o
2 -7 9 2480.410 2228.180 51.198 0.470 o
2 -7 10 7755.200 8100.130 189.668 0.050 o
2 -7 11 750.834 751.606 41.364 2.170 o
2 -7 12 1342.080 1436.110 66.220 0.856 o
2 -7 13 1012.160 1026.280 53.258 1.354 o
2 -7 14 1.838 6.570 5.703 255.993 o
2 -7 15 12.016 17.032 3.018 260.002 o
2 -7 16 1732.660 1589.460 24.634 0.916 o
2 -7 17 1701.170 1567.390 25.408 0.937 o
2 -7 18 68.564 57.949 3.429 62.553 o
2 -7 19 26.466 18.606 2.927 165.413 o
2 -7 20 1780.520 1751.470 28.466 0.833 o
2 -7 21 771.203 707.076 12.597 3.242 o
2 -7 22 71.703 64.718 3.509 58.464 o
2 -7 23 530.086 591.431 12.368 4.902 o
2 -7 24 205.192 205.687 7.170 17.030 o
2 -7 25 74.385 52.462 3.620 60.171 o
2 -7 26 257.379 299.578 6.991 12.498 o
2 -7 27 148.554 132.579 5.226 26.309 o
2 -7 28 408.670 419.796 8.477 7.401 o
2 -7 29 218.651 199.512 5.679 16.948 o
2 -7 30 105.120 103.214 4.571 37.228 o
2 -7 31 1213.650 1349.920 31.201 1.353 o
2 -7 32 21.905 21.449 2.610 184.984 o
2 -7 33 465.776 359.738 13.005 6.576 o
2 -7 34 37.987 24.633 2.119 127.544 o
2 -6 0 2073.100 1607.660 85.407 0.502 o
2 -6 2 4388.230 4824.320 167.436 0.117 o
2 -6 3 3793.920 3957.400 140.999 0.159 o
2 -6 4 199.419 104.059 5.283 22.193 o
2 -6 5 2232.300 1735.390 53.055 0.579 o
2 -6 6 1519.660 1451.240 45.884 0.947 o
2 -6 7 309.771 302.740 16.508 8.737 o
2 -6 8 2416.110 2255.740 47.575 0.488 o
2 -6 9 901.897 1173.390 28.539 1.907 o
2 -6 10 1103.280 1411.830 33.972 1.399 o
2 -6 11 5176.050 5489.650 108.380 0.113 o
2 -6 12 18.456 28.236 4.863 141.997 o
2 -6 13 6684.410 6387.360 125.827 0.076 o
2 -6 14 671.699 707.468 19.439 3.410 o
2 -6 15 278.276 294.523 16.807 9.341 o
2 -6 16 15.744 35.147 2.969 175.331 o
2 -6 17 1574.000 1505.690 19.618 1.065 o
2 -6 18 145.169 134.813 4.585 27.049 o
2 -6 19 397.870 430.590 8.100 7.517 o
2 -6 20 1776.170 1771.870 24.342 0.845 o
2 -6 21 89.497 97.706 5.251 41.093 o
2 -6 22 7.623 10.509 2.586 400.471 o
2 -6 23 53.454 57.130 4.354 70.449 o
2 -6 24 60.490 80.458 4.846 56.658 o
2 -6 25 12.149 16.927 3.272 249.123 o
2 -6 26 448.114 413.071 10.732 6.698 o
2 -6 27 1.391 4.994 2.594 826.127 o
2 -6 28 23.573 34.533 2.735 149.272 o
2 -6 29 193.344 200.012 5.191 18.756 o
2 -6 30 3.764 3.280 2.313 773.915 o
2 -6 31 106.702 92.425 3.621 39.314 o
2 -6 32 312.292 335.387 11.913 9.412 o
2 -6 33 3.189 2.445 1.905 1017.990 o
2 -5 0 66.435 68.266 8.148 45.837 o
2 -5 1 7669.730 8249.300 191.379 0.050 o
2 -5 2 94.373 111.465 13.140 24.671 o
2 -5 3 4895.240 4737.280 135.557 0.119 o
2 -5 4 229.851 404.223 21.178 8.015 o
2 -5 5 5377.200 5587.340 184.564 0.087 o
2 -5 6 14346.500 13821.600 440.775 0.014 o
2 -5 7 436.813 415.618 22.490 5.415 o
2 -5 8 673.797 570.286 18.033 3.777 o
2 -5 9 23.380 23.393 4.965 133.114 o
2 -5 10 3249.480 2902.940 64.084 0.294 o
2 -5 11 9899.270 8795.890 212.732 0.036 o
2 -5 12 3119.590 3517.440 90.973 0.249 o
2 -5 13 799.663 842.128 31.002 2.357 o
2 -5 14 1130.450 1159.960 35.955 1.476 o
2 -5 15 0.434 5.364 7.592 164.661 o
2 -5 16 558.188 627.017 38.258 2.884 o
2 -5 17 1833.680 1684.940 74.518 0.596 o
2 -5 18 0.638 4.958 2.794 829.541 o
2 -5 19 907.217 799.400 15.969 2.561 o
2 -5 20 70.429 82.436 4.602 52.031 o
2 -5 21 2.237 2.291 3.111 701.084 o
2 -5 22 362.788 318.296 8.403 9.119 o
2 -5 23 89.871 130.141 5.366 36.602 o
2 -5 24 1616.060 1556.050 26.400 0.988 o
2 -5 25 309.525 278.228 7.813 11.010 o
2 -5 26 274.939 279.530 7.780 12.067 o
2 -5 27 1.771 2.098 2.670 911.455 o
2 -5 28 198.208 221.883 6.479 17.233 o
2 -5 29 353.662 374.869 8.537 8.715 o
2 -5 30 78.903 84.668 3.503 50.139 o
2 -5 31 229.942 252.098 5.998 14.843 o
2 -5 32 280.680 273.972 5.590 12.393 o
2 -5 33 197.008 183.297 4.896 19.204 o
2 -5 34 46.728 41.072 4.238 84.948 o
2 -4 0 183.387 187.557 9.687 17.674 o
2 -4 1 0.444 7.924 5.006 325.258 o
2 -4 2 5366.130 4862.380 115.435 0.113 o
2 -4 3 3918.760 3788.240 123.625 0.170 o
2 -4 4 10554.500 10215.500 190.607 0.032 o
2 -4 5 436.097 544.710 16.889 5.516 o
2 -4 6 22.766 60.739 7.940 71.465 o
2 -4 7 8823.700 9142.330 300.556 0.034 o
2 -4 8 1213.900 950.953 90.100 0.750 o
2 -4 9 6710.970 6421.230 218.005 0.061 o
2 -4 10 4655.050 6278.870 214.161 0.083 o
2 -4 12 21484.000 21270.300 474.519 0.007 o
2 -4 13 69.218 43.676 7.440 52.092 o
2 -4 14 48.542 39.820 6.613 69.083 o
2 -4 15 65.569 40.814 5.995 60.661 o
2 -4 16 1357.910 1429.360 42.472 1.083 o
2 -4 17 9776.520 9843.030 274.412 0.031 o
2 -4 18 2266.180 2072.080 48.020 0.542 o
2 -4 19 212.743 197.289 7.825 16.563 o
2 -4 20 1409.720 1325.900 24.047 1.244 o
2 -4 21 197.161 184.847 6.768 18.385 o
2 -4 22 134.770 160.556 6.520 25.296 o
2 -4 23 1644.000 1538.300 29.541 0.960 o
2 -4 24 784.126 757.931 19.722 2.893 o
2 -4 25 204.665 182.255 7.321 17.725 o
2 -4 26 1517.150 1480.490 25.435 1.086 o
2 -4 27 555.150 567.134 11.028 4.877 o
2 -4 28 0.694 3.473 2.403 1099.570 o
2 -4 29 0.123 0.826 2.600 1358.090 o
2 -4 30 291.841 280.529 7.001 11.659 o
2 -4 31 956.968 965.700 16.503 2.225 o
2 -4 32 35.661 41.728 2.997 108.323 o
2 -4 33 35.938 32.188 2.551 120.465 o
2 -4 34 3.252 0.886 1.426 1381.110 o
2 -3 0 6654.510 6565.690 150.773 0.071 o
2 -3 1 2248.060 2292.080 57.127 0.496 o
2 -3 2 594.913 450.551 16.453 4.679 o
2 -3 3 16921.700 17002.400 379.814 0.012 o
2 -3 4 3474.830 3746.190 131.627 0.183 o
2 -3 5 10792.500 10245.600 234.595 0.029 o
2 -3 6 4306.680 4381.350 149.032 0.133 o
2 -3 7 2790.380 2998.370 106.556 0.273 o
2 -3 8 463.093 567.082 30.135 3.946 o
2 -3 9 2278.470 2364.100 50.150 0.500 o
2 -3 10 6868.150 6621.640 139.381 0.070 o
2 -3 11 541.820 819.065 26.223 3.361 o
2 -3 12 6701.610 6951.600 289.668 0.049 o
2 -3 13 1533.290 1276.880 59.056 0.872 o
2 -3 14 837.129 733.104 29.475 2.449 o
2 -3 15 6666.690 7038.810 181.425 0.064 o
2 -3 16 510.282 527.531 20.257 4.693 o
2 -3 17 2201.030 2271.280 55.719 0.513 o
2 -3 18 3647.630 3447.370 62.888 0.239 o
2 -3 19 503.151 520.313 12.977 5.371 o
2 -3 20 19.177 20.122 3.599 181.745 o
2 -3 21 2189.130 2224.940 34.905 0.576 o
2 -3 22 508.969 523.697 12.735 5.324 o
2 -3 23 301.980 344.486 10.009 9.924 o
2 -3 24 1430.070 1358.670 27.085 1.190 o
2 -3 25 208.477 200.542 7.873 16.694 o
2 -3 26 454.968 451.412 10.776 6.379 o
2 -3 27 31.184 31.561 3.482 123.788 o
2 -3 28 0.559 4.443 2.521 984.383 o
2 -3 29 94.749 101.354 4.148 40.752 o
2 -3 30 356.156 362.644 8.378 8.806 o
2 -3 31 429.814 407.874 9.634 7.076 o
2 -3 32 148.767 169.693 4.815 24.298 o
2 -3 33 386.046 396.248 20.584 6.241 o
2 -3 34 332.824 285.809 8.802 10.110 o
2 -3 35 147.580 126.751 6.262 26.011 o
2 -2 0 29.310 24.866 5.536 109.910 o
2 -2 1 3786.840 3669.930 86.626 0.206 o
2 -2 2 4921.540 5141.630 170.269 0.102 o
2 -2 3 1322.700 1379.960 54.648 0.996 o
2 -2 4 10472.300 10557.500 335.493 0.025 o
2 -2 5 960.592 1134.160 31.089 1.795 o
2 -2 6 4571.990 4972.240 115.459 0.132 o
2 -2 7 2395.790 2825.460 68.758 0.395 o
2 -2 8 32.948 84.123 6.304 66.160 o
2 -2 9 850.995 795.923 20.234 2.620 o
2 -2 10 1293.890 1314.330 36.204 1.240 o
2 -2 11 34.742 5.595 3.088 156.135 o
2 -2 12 5254.160 5599.710 193.251 0.086 o
2 -2 13 148.979 138.621 16.313 16.134 o
2 -2 14 56.483 59.120 13.086 33.657 o
2 -2 15 1550.890 1539.300 49.529 0.880 o
2 -2 16 62.896 54.508 9.618 44.091 o
2 -2 17 4.492 10.814 9.009 107.049 o
2 -2 18 1776.960 1947.000 31.868 0.777 o
2 -2 19 294.425 267.083 9.040 11.363 o
2 -2 20 640.648 629.472 13.835 3.992 o
2 -2 21 18.607 25.082 3.771 169.235 o
2 -2 22 71.407 83.908 5.011 50.284 o
2 -2 23 8.426 10.780 3.331 326.411 o
2 -2 24 831.479 844.580 19.076 2.637 o
2 -2 25 523.729 531.316 13.887 5.088 o
2 -2 26 267.057 269.191 9.269 12.139 o
2 -2 27 123.953 142.199 9.859 24.287 o
2 -2 28 890.460 917.190 19.522 2.378 o
2 -2 29 231.016 218.813 7.451 15.168 o
2 -2 30 1296.420 1398.660 22.649 1.328 o
2 -2 31 256.493 251.527 6.591 13.537 o
2 -2 32 8.852 4.508 1.941 511.122 o
2 -2 33 21.086 25.705 2.777 175.787 o
2 -2 34 9.304 9.104 1.779 435.813 o
2 -2 35 555.106 493.465 17.641 4.718 o
2 -1 0 4556.680 4715.550 146.853 0.123 o
2 -1 1 22928.400 23467.600 734.155 0.005 o
2 -1 2 16.992 22.966 5.241 146.892 o
2 -1 3 6256.110 6703.480 215.043 0.064 o
2 -1 4 10106.800 10404.400 240.480 0.031 o
2 -1 5 10519.300 11270.800 252.403 0.028 o
2 -1 6 6469.870 6628.010 150.990 0.073 o
2 -1 7 29447.200 30096.300 663.929 0.004 o
2 -1 8 619.326 662.703 19.730 3.729 o
2 -1 9 18.798 50.456 6.763 91.602 o
2 -1 10 3864.740 4005.840 153.740 0.148 o
2 -1 11 278.558 298.600 20.961 8.136 o
2 -1 12 193.535 159.327 15.929 14.004 o
2 -1 13 5072.400 5319.200 184.110 0.093 o
2 -1 14 744.932 908.483 45.718 1.901 o
2 -1 15 10593.100 11677.100 384.884 0.022 o
2 -1 16 2791.270 3020.900 116.936 0.257 o
2 -1 17 2315.840 2294.050 95.126 0.379 o
2 -1 18 47.851 55.587 4.221 76.494 o
2 -1 19 340.655 261.031 9.716 10.054 o
2 -1 20 3834.960 3902.600 69.594 0.207 o
2 -1 21 98.084 95.028 7.821 34.647 o
2 -1 22 1464.750 1461.660 36.262 1.054 o
2 -1 23 853.788 899.967 17.355 2.540 o
2 -1 24 746.476 723.367 16.395 3.195 o
2 -1 25 2201.760 2146.870 54.944 0.529 o
2 -1 26 1574.410 1594.140 33.077 0.965 o
2 -1 27 504.096 518.014 16.061 5.132 o
2 -1 28 48.760 59.223 5.875 66.070 o
2 -1 29 265.814 294.353 10.653 11.409 o
2 -1 30 39.355 34.600 4.264 98.521 o
2 -1 31 50.117 49.686 3.245 81.609 o
2 -1 32 2.606 2.076 2.269 979.351 o
2 -1 33 154.090 167.111 7.914 21.843 o
2 -1 34 166.611 133.108 6.684 23.164 o
2 0 0 381.015 423.509 19.804 6.272 o
2 0 1 5487.720 5718.780 130.924 0.098 o
2 0 2 638.845 769.491 22.147 3.294 o
2 0 3 6732.250 7196.620 163.281 0.065 o
2 0 4 1.908 9.503 2.452 650.875 o
2 0 5 9334.300 8889.780 198.629 0.039 o
2 0 6 5750.880 6053.670 137.166 0.089 o
2 0 7 2057.900 2246.560 75.809 0.481 o
2 0 8 11644.000 12613.000 283.405 0.023 o
2 0 9 2942.470 3028.700 73.049 0.308 o
2 0 10 9821.610 9632.280 218.327 0.034 o
2 0 11 1629.810 1587.760 63.784 0.735 o
2 0 12 459.194 488.355 28.483 4.325 o
2 0 13 19490.800 20437.200 651.877 0.007 o
2 0 14 2102.500 2422.230 93.650 0.402 o
2 0 15 180.639 205.841 14.740 14.301 o
2 0 16 162.166 206.202 23.488 10.107 o
2 0 17 1346.770 1336.450 36.706 1.183 o
2 0 18 6866.730 6904.510 187.953 0.062 o
2 0 19 6315.970 6782.180 183.509 0.068 o
2 0 20 7529.830 7584.580 188.844 0.054 o
2 0 21 3200.580 3319.120 59.612 0.283 o
2 0 22 346.220 389.110 9.547 8.587 o
2 0 23 4.991 9.808 3.362 397.144 o
2 0 24 1970.980 1935.230 34.526 0.692 o
2 0 25 1447.830 1425.480 30.768 1.122 o
2 0 26 2438.220 2609.830 55.786 0.432 o
2 0 27 739.904 827.759 16.397 3.027 o
2 0 28 2782.780 2844.930 73.125 0.335 o
2 0 29 345.899 385.200 9.861 8.586 o
2 0 30 15.295 20.731 2.347 235.446 o
2 0 31 826.913 800.538 27.549 2.457 o
2 0 32 219.040 251.779 7.482 14.939 o
2 0 33 487.029 469.247 17.728 5.319 o
2 0 34 61.008 57.458 4.311 64.965 o
2 1 0 1297.420 1150.320 30.552 1.376 o
2 1 1 754.295 654.114 19.927 3.170 o
2 1 2 2321.000 2400.610 66.339 0.447 o
2 1 3 46376.100 46405.600 821.791 0.002 o
2 1 4 103436.000 100926.000 2213.590 0.000 o
2 1 5 2165.940 2041.780 51.088 0.562 o
2 1 6 24976.700 24538.500 605.343 0.005 o
2 1 7 37.040 22.632 4.095 114.378 o
2 1 8 54.960 37.309 4.679 76.037 o
2 1 9 3203.030 3041.380 73.623 0.281 o
2 1 10 6889.020 7379.140 242.095 0.053 o
2 1 11 36632.900 36862.200 1156.360 0.002 o
2 1 12 41.418 39.567 9.624 55.177 o
2 1 13 978.657 1175.900 51.685 1.348 o
2 1 14 25998.000 26296.000 592.928 0.005 o
2 1 15 176.538 183.817 21.565 10.977 o
2 1 16 1310.640 1337.040 66.783 0.885 o
2 1 17 151.416 144.655 7.065 23.872 o
2 1 18 2622.170 2690.640 63.993 0.381 o
2 1 19 14276.300 14272.500 390.917 0.015 o
2 1 20 868.134 807.067 19.098 2.587 o
2 1 21 933.713 916.599 15.832 2.346 o
2 1 22 3607.270 3727.570 60.401 0.233 o
2 1 23 1243.950 1280.870 20.408 1.465 o
2 1 24 3634.160 3713.420 50.960 0.237 o
2 1 25 3794.200 3918.420 49.619 0.220 o
2 1 26 251.979 282.385 8.414 12.660 o
2 1 27 0.159 2.671 2.759 1046.360 o
2 1 28 288.127 315.528 7.518 11.144 o
2 1 29 536.175 533.217 11.191 5.153 o
2 1 30 2534.330 2765.460 47.173 0.418 o
2 1 31 2.078 9.363 2.355 664.388 o
2 1 32 374.912 378.045 11.785 7.868 o
2 1 33 185.445 153.897 8.766 19.236 o
2 2 0 22362.000 22223.800 495.084 0.007 o
2 2 1 27941.500 27840.700 618.284 0.004 o
2 2 2 21105.600 21254.800 672.706 0.006 o
2 2 3 65.571 27.946 4.780 70.517 o
2 2 4 10121.800 10937.400 297.721 0.027 o
2 2 5 4465.700 5119.930 155.038 0.117 o
2 2 6 6942.580 7405.060 174.747 0.061 o
2 2 7 20095.300 19537.500 525.550 0.008 o
2 2 8 4425.280 4594.600 119.715 0.140 o
2 2 9 609.055 709.527 33.537 2.902 o
2 2 10 2720.400 2763.960 213.352 0.147 o
2 2 11 3867.330 4225.100 143.925 0.151 o
2 2 12 6533.510 6939.660 229.456 0.058 o
2 2 14 3023.740 3239.870 80.862 0.280 o
2 2 15 172.333 167.838 9.485 19.208 o
2 2 16 1393.860 1315.960 33.350 1.185 o
2 2 17 4942.970 4855.480 155.059 0.110 o
2 2 18 169.983 169.333 8.408 20.055 o
2 2 19 1438.110 1438.940 39.359 1.054 o
2 2 20 2268.130 2130.270 48.886 0.532 o
2 2 21 85.557 81.963 4.557 46.157 o
2 2 22 1011.190 1024.400 25.203 1.912 o
2 2 23 0.860 5.380 3.257 648.904 o
2 2 24 78.857 66.832 4.468 52.073 o
2 2 25 284.135 299.535 7.793 11.450 o
2 2 26 728.381 821.744 14.691 3.129 o
2 2 27 239.873 233.672 6.420 14.697 o
2 2 28 42.467 51.507 3.740 86.703 o
2 2 29 1.670 1.961 2.496 1014.820 o
2 2 30 621.375 675.257 12.347 4.034 o
2 2 31 385.447 423.226 10.449 7.522 o
2 2 32 424.134 397.984 19.191 6.049 o
2 2 33 20.164 18.846 3.027 192.911 o
2 3 0 19136.900 19491.400 437.473 0.009 o
2 3 1 36.428 39.333 5.928 85.323 o
2 3 2 1768.690 1893.990 67.483 0.622 o
2 3 3 3875.930 4264.650 89.272 0.184 o
2 3 4 6350.200 6910.320 184.388 0.067 o
2 3 5 2877.320 3225.040 96.260 0.273 o
2 3 6 11847.400 12839.700 319.608 0.021 o
2 3 7 1160.490 1146.030 43.086 1.344 o
2 3 8 2234.240 2316.500 58.212 0.494 o
2 3 9 55.558 57.369 3.816 70.823 o
2 3 10 118.222 135.688 7.337 28.328 o
2 3 11 5274.940 5852.440 131.811 0.100 o
2 3 12 988.445 981.961 29.834 1.895 o
2 3 13 321.301 275.935 12.304 9.787 o
2 3 14 943.640 877.982 24.203 2.198 o
2 3 15 1.688 9.050 2.931 579.789 o
2 3 16 100.384 96.278 4.776 39.031 o
2 3 17 3.419 5.622 2.783 608.160 o
2 3 18 29.039 19.732 3.409 146.776 o
2 3 19 334.395 300.242 8.682 9.916 o
2 3 20 27.992 24.983 3.298 143.315 o
2 3 21 2042.380 2170.350 30.623 0.638 o
2 3 22 44.827 46.824 3.630 87.281 o
2 3 23 239.396 264.532 6.935 13.892 o
2 3 24 912.273 933.067 17.084 2.355 o
2 3 25 209.724 216.638 7.092 16.477 o
2 3 26 1128.150 1289.100 22.632 1.580 o
2 3 27 15.813 22.889 3.127 204.101 o
2 3 28 414.883 407.059 9.028 7.352 o
2 3 29 34.370 38.482 2.832 115.064 o
2 3 30 1.692 4.795 2.217 941.698 o
2 3 31 91.735 93.837 7.583 36.615 o
2 3 32 1447.900 1226.210 41.694 1.099 o
2 4 0 22688.000 23071.600 739.133 0.006 o
2 4 1 5927.370 6255.790 258.234 0.061 o
2 4 2 31.949 33.157 10.595 55.258 o
2 4 3 49.193 80.505 8.875 47.115 o
2 4 4 5117.050 5117.880 395.609 0.044 o
2 4 5 502.040 408.429 53.137 2.333 o
2 4 6 7321.780 7152.720 683.760 0.017 o
2 4 7 3423.160 3762.890 379.477 0.056 o
2 4 8 2392.350 2294.360 131.322 0.285 o
2 4 9 10204.300 9985.310 530.404 0.019 o
2 4 10 1.890 5.951 3.325 564.154 o
2 4 11 7328.490 7449.030 139.529 0.061 o
2 4 12 569.724 520.222 24.779 3.995 o
2 4 13 2111.410 2258.350 74.069 0.475 o
2 4 14 7571.130 7481.540 142.762 0.059 o
2 4 15 1030.130 1039.480 24.059 1.888 o
2 4 16 785.014 768.709 15.197 3.006 o
2 4 17 1366.490 1309.780 21.477 1.311 o
2 4 18 48.900 53.688 3.327 80.452 o
2 4 19 2097.950 2228.770 32.404 0.607 o
2 4 20 206.592 231.803 6.636 16.390 o
2 4 21 34.187 41.445 3.611 106.615 o
2 4 22 972.086 1106.190 20.392 1.991 o
2 4 23 219.316 240.352 7.217 15.291 o
2 4 24 31.404 34.383 3.910 115.803 o
2 4 25 140.383 155.865 5.693 25.537 o
2 4 26 113.115 124.551 4.929 32.793 o
2 4 27 1387.550 1476.180 24.213 1.197 o
2 4 28 1.881 3.056 2.204 1042.400 o
2 4 29 242.915 249.627 19.395 9.693 o
2 4 30 2.881 4.261 3.882 457.610 o
2 5 0 12309.000 12148.900 317.040 0.021 o
2 5 1 10006.600 10775.700 251.915 0.030 o
2 5 2 912.319 704.517 28.135 2.351 o
2 5 3 1752.050 1849.690 55.094 0.698 o
2 5 4 13801.500 13614.700 315.379 0.017 o
2 5 5 2548.630 2412.500 70.678 0.399 o
2 5 6 844.959 775.561 35.424 2.185 o
2 5 7 22933.000 23213.100 1001.260 0.004 o
2 5 8 351.879 377.686 15.620 7.612 o
2 5 9 49.825 80.706 7.955 50.428 o
2 5 10 499.003 481.579 13.702 5.525 o
2 5 11 196.052 178.997 7.211 18.456 o
2 5 12 2111.790 1802.420 23.904 0.694 o
2 5 13 134.120 143.362 4.376 28.147 o
2 5 14 246.617 195.209 5.241 15.624 o
2 5 15 753.278 715.694 21.081 3.019 o
2 5 16 1828.980 1792.220 26.407 0.808 o
2 5 17 48.267 49.247 3.472 82.805 o
2 5 18 530.628 561.251 10.912 5.099 o
2 5 19 4.047 5.087 2.559 633.299 o
2 5 20 4705.010 4709.560 67.618 0.149 o
2 5 21 297.464 289.101 8.258 11.116 o
2 5 22 952.786 997.173 20.422 2.133 o
2 5 23 446.718 482.412 11.830 6.205 o
2 5 24 104.115 118.997 5.864 34.026 o
2 5 25 2.217 5.907 2.764 674.596 o
2 5 26 3.982 4.335 2.635 643.423 o
2 5 27 604.026 593.941 13.286 4.335 o
2 5 28 75.451 74.695 5.645 48.892 o
2 5 29 3.658 3.163 2.169 829.450 o
2 5 30 8.657 2.014 2.637 485.493 o
2 6 0 693.983 587.634 26.220 3.224 o
2 6 1 5782.500 6045.320 175.031 0.081 o
2 6 2 3046.230 3456.940 125.831 0.216 o
2 6 3 3899.610 4421.630 261.724 0.087 o
2 6 4 4284.700 4324.990 163.059 0.127 o
2 6 5 133.555 232.928 16.538 14.541 o
2 6 6 339.445 294.945 18.778 7.781 o
2 6 7 1181.390 933.725 27.543 1.682 o
2 6 8 12.193 8.361 4.514 230.373 o
2 6 9 328.659 312.565 11.537 9.382 o
2 6 10 19.580 26.659 3.146 173.955 o
2 6 11 311.793 327.115 10.139 9.872 o
2 6 12 495.657 440.387 10.412 6.018 o
2 6 13 2519.370 2334.520 38.895 0.475 o
2 6 14 263.103 305.955 9.342 11.655 o
2 6 15 536.875 542.454 11.044 5.117 o
2 6 16 2598.610 2476.860 38.529 0.446 o
2 6 17 77.578 66.263 4.365 53.031 o
2 6 18 4903.210 5134.200 77.595 0.133 o
2 6 19 20.703 26.184 3.323 166.870 o
2 6 20 47.363 49.109 4.393 79.170 o
2 6 21 306.633 315.223 9.460 10.275 o
2 6 22 431.901 449.924 14.404 6.292 o
2 6 23 453.861 502.596 15.157 5.717 o
2 6 24 0.271 0.507 3.881 647.074 o
2 6 25 7.578 9.871 4.010 297.448 o
2 6 26 933.380 1036.830 38.903 1.736 o
2 6 27 52.120 55.284 3.933 74.099 o
2 6 28 14.780 13.375 2.741 261.282 o
2 6 29 49.191 35.398 2.352 95.240 o
2 7 0 2556.430 2614.840 195.633 0.171 o
2 7 1 174.283 231.886 14.484 14.176 o
2 7 2 6969.770 7129.920 236.919 0.054 o
2 7 3 1555.790 1468.740 51.577 0.879 o
2 7 4 454.954 461.564 25.265 4.780 o
2 7 5 578.876 552.267 22.052 4.067 o
2 7 6 140.784 149.141 7.231 24.664 o
2 7 7 2669.600 2603.610 56.520 0.394 o
2 7 8 11.232 13.099 2.922 295.021 o
2 7 9 1330.530 1356.450 24.153 1.303 o
2 7 10 83.115 98.396 6.566 40.282 o
2 7 11 972.956 1007.650 22.490 2.045 o
2 7 12 244.274 221.557 8.008 14.302 o
2 7 13 2103.370 2069.210 38.094 0.615 o
2 7 14 41.575 69.938 4.967 72.020 o
2 7 15 566.366 584.554 14.690 4.532 o
2 7 16 487.105 595.707 16.340 4.941 o
2 7 17 499.519 505.636 14.775 5.327 o
2 7 18 1943.160 1976.630 34.864 0.694 o
2 7 19 132.055 91.136 6.746 30.334 o
2 7 20 246.979 278.092 10.796 12.217 o
2 7 21 999.095 1106.780 27.012 1.833 o
2 7 22 23.518 27.874 4.456 135.135 o
2 7 23 285.391 334.133 11.136 10.216 o
2 7 24 726.271 803.751 20.793 2.972 o
2 7 25 184.024 169.245 5.726 20.442 o
2 7 26 176.849 167.451 6.890 20.509 o
2 7 27 9.460 12.800 2.888 323.543 o
2 8 0 1418.800 1379.460 23.267 1.218 o
2 8 1 189.362 134.759 10.953 18.153 o
2 8 2 46.455 54.016 3.476 82.173 o
2 8 3 1597.290 1677.450 29.314 0.948 o
2 8 4 3588.200 3560.430 73.453 0.231 o
2 8 5 14.915 30.222 4.505 157.830 o
2 8 6 184.622 195.620 8.735 17.881 o
2 8 7 10.874 22.870 3.425 229.220 o
2 8 8 0.878 12.119 2.950 543.736 o
2 8 9 4466.380 4493.640 124.794 0.138 o
2 8 10 70.059 70.241 4.449 55.499 o
2 8 11 276.628 318.199 10.071 10.901 o
2 8 12 6.018 3.555 3.078 490.763 o
2 8 13 189.092 148.217 6.256 20.635 o
2 8 14 37.410 56.431 4.451 85.485 o
2 8 15 281.598 355.696 11.316 10.006 o
2 8 16 388.631 405.429 11.990 7.418 o
2 8 17 76.754 66.309 5.708 49.886 o
2 8 18 227.357 209.360 9.092 14.971 o
2 8 19 57.159 51.614 5.163 66.237 o
2 8 20 870.820 957.358 22.883 2.301 o
2 8 21 5.792 4.226 2.871 517.307 o
2 8 22 72.768 68.314 4.730 53.888 o
2 8 23 454.030 485.834 15.905 5.721 o
2 8 24 18.753 19.600 4.005 175.349 o
2 8 25 848.657 860.021 43.040 1.870 o
2 8 26 89.901 73.493 2.857 48.894 o
2 9 0 524.298 474.216 10.608 5.551 o
2 9 1 252.318 266.470 8.493 12.918 o
2 9 2 4240.390 4309.090 69.074 0.176 o
2 9 3 73.024 60.955 4.009 57.536 o
2 9 4 197.443 207.515 7.762 17.189 o
2 9 5 71.481 75.891 5.535 50.566 o
2 9 6 1438.240 1436.290 29.651 1.134 o
2 9 7 4872.950 5113.720 118.487 0.121 o
2 9 8 1536.300 1595.550 29.483 1.010 o
2 9 9 785.479 740.183 13.377 3.103 o
2 9 10 133.144 92.735 5.297 31.645 o
2 9 11 170.011 124.965 6.534 23.339 o
2 9 12 597.033 593.961 14.120 4.337 o
2 9 13 3050.870 3187.710 41.827 0.322 o
2 9 14 24.792 26.297 3.800 144.020 o
2 9 15 458.473 559.447 13.544 5.552 o
2 9 16 390.419 460.599 13.650 6.808 o
2 9 17 75.154 67.006 5.990 49.600 o
2 9 18 55.941 49.349 4.681 70.128 o
2 9 19 240.728 247.857 9.767 13.322 o
2 9 20 139.708 165.818 5.684 25.026 o
2 9 21 212.721 244.374 16.136 11.797 o
2 9 22 71.389 83.899 5.069 50.150 o
2 9 23 361.651 366.187 19.523 6.859 o
2 9 24 7.920 1.828 1.965 610.407 o
2 10 0 7554.090 7375.160 145.248 0.059 o
2 10 1 23.550 27.767 3.572 149.179 o
2 10 2 7023.680 7071.800 125.602 0.068 o
2 10 3 435.117 458.153 10.656 6.586 o
2 10 4 4168.110 3938.740 61.935 0.192 o
2 10 5 4256.210 4088.350 61.946 0.183 o
2 10 6 1043.830 1000.290 18.477 1.985 o
2 10 7 1056.530 1048.740 23.274 1.849 o
2 10 8 294.979 232.761 7.829 12.168 o
2 10 9 1503.360 1439.360 34.117 1.052 o
2 10 10 160.877 149.400 7.064 22.654 o
2 10 11 1644.610 1551.940 32.958 0.937 o
2 10 12 31.201 39.275 3.383 116.263 o
2 10 13 303.196 271.743 7.294 11.389 o
2 10 14 137.551 135.481 5.132 27.674 o
2 10 15 43.984 31.894 5.897 81.457 o
2 10 16 153.257 146.706 8.725 22.225 o
2 10 17 63.279 59.791 4.416 62.358 o
2 10 18 0.474 2.618 2.329 1277.210 o
2 10 19 140.881 138.705 5.234 26.913 o
2 10 20 5.476 9.686 5.099 249.101 o
2 10 21 39.679 53.898 6.188 73.210 o
2 10 22 649.207 675.883 25.288 3.276 o
2 11 0 1088.620 991.301 23.510 1.840 o
2 11 1 2602.880 2372.680 65.966 0.404 o
2 11 2 59.011 39.355 3.761 75.784 o
2 11 3 344.351 324.285 11.473 8.948 o
2 11 4 682.409 579.303 13.412 3.920 o
2 11 5 95.877 100.119 5.284 38.951 o
2 11 6 238.794 212.349 6.916 15.117 o
2 11 7 42.134 22.400 3.357 111.537 o
2 11 8 4.404 8.690 3.272 435.822 o
2 11 9 197.127 167.105 6.800 18.998 o
2 11 10 24.394 20.530 3.608 158.374 o
2 11 11 471.769 450.154 11.457 6.140 o
2 11 12 251.246 256.850 7.929 13.298 o
2 11 13 414.438 376.934 10.777 7.397 o
2 11 15 71.074 87.826 6.678 45.332 o
2 11 16 88.168 98.231 6.474 39.133 o
2 11 17 212.302 223.108 7.203 16.112 o
2 11 18 155.373 139.232 7.381 23.489 o
2 11 19 62.077 57.267 5.988 58.015 o
2 11 20 815.049 761.516 27.517 2.535 o
2 12 0 62.063 72.447 6.679 51.770 o
2 12 1 11.284 10.849 3.304 288.530 o
2 12 2 72.701 90.151 5.742 46.753 o
2 12 3 207.501 182.599 9.244 16.627 o
2 12 4 125.409 149.796 6.701 27.006 o
2 12 5 294.899 301.883 9.405 10.771 o
2 12 6 419.113 460.199 11.949 6.645 o
2 12 7 1137.120 1294.910 29.097 1.489 o
2 12 8 81.174 84.743 4.802 46.761 o
2 12 9 495.001 534.823 14.846 5.236 o
2 12 10 870.924 908.397 31.213 2.135 o
2 12 11 3054.560 2991.570 71.085 0.301 o
2 12 12 157.454 163.530 11.600 18.829 o
2 12 13 0.847 9.628 5.502 265.693 o
2 12 14 321.004 368.293 10.452 9.155 o
2 12 15 52.166 75.933 4.219 65.020 o
2 12 16 227.366 204.128 9.243 15.034 o
2 12 17 23.458 20.958 4.000 153.892 o
2 12 18 347.231 277.480 11.338 9.399 o
2 13 0 99.854 140.139 6.175 32.393 o
2 13 1 267.336 293.717 8.881 11.828 o
2 13 2 92.495 102.643 5.708 38.816 o
2 13 3 1893.000 2077.790 37.677 0.684 o
2 13 4 498.289 558.217 25.137 4.242 o
2 13 5 13.425 9.170 4.450 221.083 o
2 13 6 350.547 363.703 11.037 8.524 o
2 13 7 110.153 119.180 5.278 33.517 o
2 13 8 1650.600 1745.260 36.179 0.864 o
2 13 9 196.922 203.183 11.387 15.527 o
2 13 10 387.942 472.024 31.960 4.360 o
2 13 11 553.893 637.611 17.448 4.276 o
2 13 12 180.765 184.260 6.665 19.646 o
2 13 13 30.812 22.693 2.631 146.127 o
2 13 14 352.641 320.564 7.783 9.397 o
2 14 0 640.873 651.218 12.935 3.969 o
2 14 1 2891.390 3074.380 54.221 0.335 o
2 14 2 253.992 259.777 7.062 13.358 o
2 14 3 3.831 4.631 2.560 659.649 o
2 14 4 613.511 606.351 11.731 4.309 o
2 14 5 27.316 27.319 2.924 146.540 o
2 14 6 508.100 508.624 12.980 5.379 o
2 14 7 699.254 710.569 18.042 3.348 o
2 14 8 180.088 172.324 18.188 12.894 o
2 14 9 2419.970 2461.920 55.560 0.449 o
2 14 10 71.075 73.552 5.486 51.376 o
2 14 11 5.251 6.487 1.894 639.803 o
2 15 0 0.910 4.992 2.642 857.437 o
2 15 1 1.533 0.582 2.251 1326.590 o
2 15 2 904.747 885.030 21.299 2.343 o
2 15 3 56.177 50.553 2.804 76.801 o
2 15 4 590.946 546.239 15.432 4.453 o
2 15 5 67.904 42.675 3.197 68.983 o
2 15 6 2.061 1.864 2.251 1086.170 o
3 -18 3 1016.280 670.096 23.602 2.280 o
3 -18 4 69.659 49.463 3.895 63.252 o
3 -18 5 330.826 230.600 9.577 10.726 o
3 -18 6 313.174 253.256 10.331 10.729 o
3 -18 7 271.922 199.065 8.571 13.438 o
3 -17 0 323.026 327.153 10.804 9.488 o
3 -17 1 87.458 88.455 5.373 42.869 o
3 -17 2 26.184 24.948 3.638 144.232 o
3 -17 3 7.342 13.015 4.631 245.109 o
3 -17 4 142.390 161.304 10.113 21.335 o
3 -17 5 148.440 165.142 30.662 7.679 o
3 -17 6 768.736 792.698 86.304 0.965 o
3 -17 7 10.392 11.396 3.497 285.373 o
3 -17 8 151.623 170.198 15.138 16.163 o
3 -17 9 1454.080 1437.430 48.894 0.962 o
3 -17 10 379.679 344.999 14.932 7.561 o
3 -17 11 1021.210 1020.840 25.605 1.891 o
3 -17 12 11.313 15.583 2.942 278.257 o
3 -17 13 728.793 656.952 17.107 3.373 o
3 -17 14 1027.080 824.477 74.665 1.034 o
3 -17 15 108.112 91.788 5.743 36.275 o
3 -17 16 300.792 184.758 8.117 12.738 o
3 -16 0 2.339 5.620 3.525 513.632 o
3 -16 1 69.012 67.358 6.914 49.148 o
3 -16 2 115.059 111.607 5.889 32.571 o
3 -16 3 93.549 89.161 4.667 42.137 o
3 -16 4 394.423 411.417 10.964 7.416 o
3 -16 5 328.154 331.533 10.079 9.460 o
3 -16 6 10.718 11.123 3.459 285.253 o
3 -16 7 1213.930 1368.350 71.533 0.870 o
3 -16 8 9.890 20.692 2.741 274.196 o
3 -16 9 320.947 339.157 11.837 9.205 o
3 -16 10 51.306 52.661 3.447 78.078 o
3 -16 11 124.282 108.533 7.761 28.926 o
3 -16 12 797.948 853.185 48.220 1.789 o
3 -16 13 897.350 873.777 23.094 2.330 o
3 -16 14 5.828 9.858 5.652 214.670 o
3 -16 15 283.815 304.500 10.114 10.882 o
3 -16 16 161.070 184.099 19.465 12.552 o
3 -16 17 37.133 28.901 4.324 106.121 o
3 -16 18 578.049 516.136 19.657 4.346 o
3 -16 19 33.235 39.377 3.650 109.849 o
3 -16 20 1122.140 786.955 26.872 1.895 o
3 -15 0 423.736 468.518 16.314 6.061 o
3 -15 1 0.566 5.137 3.282 667.656 o
3 -15 2 444.351 467.963 17.415 5.735 o
3 -15 3 1535.850 1628.290 46.096 0.890 o
3 -15 4 385.960 407.813 11.812 7.463 o
3 -15 5 502.791 531.691 16.064 5.088 o
3 -15 6 46.168 46.323 4.635 80.395 o
3 -15 7 279.670 272.210 7.726 12.043 o
3 -15 8 2281.180 2291.820 39.340 0.533 o
3 -15 9 404.755 409.208 11.723 7.193 o
3 -15 10 233.843 236.736 6.911 14.770 o
3 -15 11 34.358 39.214 3.052 112.726 o
3 -15 12 50.106 49.846 3.513 80.378 o
3 -15 13 36.395 38.868 4.173 100.522 o
3 -15 14 301.310 315.492 9.275 10.445 o
3 -15 15 362.329 361.979 10.082 8.466 o
3 -15 16 1819.970 1842.250 36.628 0.762 o
3 -15 17 5.419 9.101 2.890 446.349 o
3 -15 18 264.591 246.054 9.562 12.538 o
3 -15 19 165.029 175.247 5.385 22.026 o
3 -15 20 21.394 25.210 2.316 182.877 o
3 -15 21 1.222 1.169 1.677 1882.650 o
3 -15 22 4.463 3.538 1.702 853.890 o
3 -15 23 124.012 117.666 6.312 29.983 o
3 -14 0 4.206 16.746 3.381 342.762 o
3 -14 1 4546.180 4483.620 97.067 0.148 o
3 -14 2 101.238 107.531 5.851 35.889 o
3 -14 3 1020.820 1081.430 22.252 1.897 o
3 -14 4 5796.790 5798.100 127.869 0.093 o
3 -14 5 127.501 143.193 6.443 27.416 o
3 -14 6 4.242 1.912 3.394 536.027 o
3 -14 7 151.778 175.482 6.598 22.585 o
3 -14 8 88.432 88.534 4.033 44.909 o
3 -14 9 9216.540 9116.540 118.280 0.043 o
3 -14 10 11.248 21.173 2.883 252.573 o
3 -14 11 691.399 696.378 11.269 3.652 o
3 -14 12 2318.730 2315.310 32.894 0.534 o
3 -14 13 1284.790 1327.360 21.075 1.389 o
3 -14 14 33.620 30.802 2.891 124.645 o
3 -14 15 315.076 341.305 9.117 9.814 o
3 -14 16 143.389 139.446 5.734 26.158 o
3 -14 17 167.260 186.970 6.206 20.870 o
3 -14 18 132.871 148.465 6.046 26.688 o
3 -14 19 292.085 336.494 10.509 10.159 o
3 -14 20 84.719 87.408 4.202 46.127 o
3 -14 21 15.116 18.920 3.040 224.611 o
3 -14 22 568.504 586.286 23.283 3.945 o
3 -14 23 345.909 374.646 9.798 8.696 o
3 -14 24 2.345 7.215 1.751 871.348 o
3 -14 25 220.282 182.155 13.488 13.858 o
3 -13 0 302.571 310.852 8.241 10.670 o
3 -13 1 62.455 48.782 3.426 70.125 o
3 -13 2 16.043 23.889 2.710 209.658 o
3 -13 3 12.651 17.488 2.382 274.948 o
3 -13 4 25.797 50.701 4.301 107.097 o
3 -13 5 511.188 614.227 21.359 4.324 o
3 -13 6 2719.800 2655.440 41.423 0.405 o
3 -13 7 880.438 838.198 13.770 2.625 o
3 -13 8 69.771 86.215 3.913 53.050 o
3 -13 9 2572.030 2612.510 33.138 0.446 o
3 -13 10 162.221 162.880 5.208 23.003 o
3 -13 11 154.181 148.258 4.579 25.044 o
3 -13 12 2563.720 2624.720 33.145 0.446 o
3 -13 13 0.760 5.008 2.320 1010.090 o
3 -13 14 883.320 880.914 13.645 2.559 o
3 -13 15 886.901 930.587 15.478 2.451 o
3 -13 16 117.433 141.557 6.432 29.009 o
3 -13 17 18.938 17.995 3.185 198.579 o
3 -13 18 0.934 2.626 2.297 1198.230 o
3 -13 19 7.292 4.077 2.326 537.255 o
3 -13 20 307.026 321.549 7.462 10.541 o
3 -13 21 142.242 131.943 4.789 27.514 o
3 -13 22 657.166 687.692 16.870 3.630 o
3 -13 23 38.324 43.162 2.643 104.631 o
3 -13 24 298.471 309.318 12.074 9.983 o
3 -13 25 927.581 983.431 23.069 2.147 o
3 -13 26 127.706 123.316 6.354 28.915 o
3 -13 27 1067.390 933.287 64.976 1.139 o
3 -12 0 9.620 27.597 2.752 242.760 o
3 -12 1 1292.440 1326.350 19.361 1.394 o
3 -12 2 370.368 385.980 7.984 8.361 o
3 -12 3 4200.800 4054.510 53.028 0.191 o
3 -12 4 474.901 519.467 10.697 5.804 o
3 -12 5 993.507 1013.560 16.823 2.093 o
3 -12 6 2463.070 2623.760 43.114 0.450 o
3 -12 7 1044.930 1051.990 16.388 1.963 o
3 -12 8 924.944 886.678 14.482 2.427 o
3 -12 9 281.436 267.179 6.770 12.268 o
3 -12 10 200.772 221.382 6.646 17.029 o
3 -12 11 54.655 51.605 3.787 74.099 o
3 -12 12 0.334 -0.430 2.755 1267.920 o
3 -12 13 68.386 91.174 4.524 51.192 o
3 -12 14 1480.970 1494.680 24.032 1.116 o
3 -12 15 1.726 2.867 2.542 925.392 o
3 -12 16 7625.990 7887.310 107.462 0.059 o
3 -12 17 305.266 328.292 8.066 10.398 o
3 -12 18 717.364 706.684 13.667 3.436 o
3 -12 19 279.904 325.650 7.997 11.146 o
3 -12 20 196.662 184.759 5.749 18.855 o
3 -12 21 863.024 889.375 17.820 2.520 o
3 -12 22 468.988 486.893 11.188 5.995 o
3 -12 23 430.196 490.487 10.958 6.425 o
3 -12 24 392.958 422.212 12.442 7.179 o
3 -12 25 455.406 511.769 10.713 6.044 o
3 -12 26 2.838 5.466 2.045 831.940 o
3 -12 27 508.227 495.922 13.018 5.431 o
3 -12 28 98.768 93.487 9.634 31.311 o
3 -12 29 619.342 495.226 12.672 4.589 o
3 -11 0 156.670 150.183 4.609 24.623 o
3 -11 1 5201.380 4934.070 63.443 0.130 o
3 -11 2 98.609 109.971 3.921 38.796 o
3 -11 3 896.602 991.023 17.808 2.310 o
3 -11 4 1359.010 1290.560 22.004 1.324 o
3 -11 5 1800.810 1848.200 27.034 0.806 o
3 -11 6 355.727 382.249 9.497 8.481 o
3 -11 7 99.043 124.161 5.416 35.141 o
3 -11 8 432.425 462.623 10.268 6.627 o
3 -11 9 5992.010 6054.720 83.639 0.095 o
3 -11 10 31.286 42.777 3.567 111.032 o
3 -11 11 2629.570 2623.850 42.830 0.421 o
3 -11 12 5022.020 5167.030 78.493 0.129 o
3 -11 13 301.214 337.123 9.308 10.166 o
3 -11 14 611.861 586.490 11.844 4.377 o
3 -11 15 7.509 13.338 3.080 337.975 o
3 -11 16 21.265 16.047 3.231 189.954 o
3 -11 17 3177.860 3364.330 57.537 0.285 o
3 -11 18 49.509 61.696 4.697 70.257 o
3 -11 19 28.218 40.113 4.068 114.822 o
3 -11 20 18.605 15.451 4.567 171.074 o
3 -11 21 1192.340 1241.340 27.336 1.477 o
3 -11 22 1249.940 1217.270 26.542 1.435 o
3 -11 23 73.337 70.658 4.909 52.599 o
3 -11 24 282.912 280.868 9.526 11.388 o
3 -11 25 443.291 483.745 16.910 5.726 o
3 -11 26 72.396 85.759 3.752 52.282 o
3 -11 27 52.516 51.267 3.343 78.002 o
3 -11 28 14.467 5.648 1.730 360.158 o
3 -11 29 115.942 123.471 5.305 31.970 o
3 -11 30 30.519 24.921 1.940 150.185 o
3 -10 0 177.745 154.148 5.520 21.754 o
3 -10 1 1588.370 1680.350 27.958 0.959 o
3 -10 2 1977.860 1948.490 28.741 0.705 o
3 -10 3 269.518 298.300 11.661 10.971 o
3 -10 4 1371.320 1349.070 23.678 1.272 o
3 -10 5 17416.100 17594.100 231.653 0.012 o
3 -10 6 6455.350 6556.740 83.376 0.083 o
3 -10 7 3891.390 3877.510 49.576 0.215 o
3 -10 8 2784.200 2721.370 35.476 0.396 o
3 -10 9 1712.950 1742.070 28.461 0.870 o
3 -10 10 4702.890 4501.250 67.844 0.153 o
3 -10 11 7348.160 7282.400 89.841 0.066 o
3 -10 12 4927.080 4928.420 58.146 0.140 o
3 -10 13 2505.460 2633.470 31.010 0.459 o
3 -10 14 2014.520 2064.310 25.016 0.679 o
3 -10 15 403.789 479.586 8.023 7.079 o
3 -10 16 145.244 134.791 4.385 27.168 o
3 -10 17 2870.610 2904.700 40.921 0.364 o
3 -10 18 5927.060 5876.700 78.475 0.099 o
3 -10 19 32.923 31.105 3.054 124.460 o
3 -10 20 176.951 169.489 5.225 21.273 o
3 -10 21 158.611 153.757 5.874 23.463 o
3 -10 22 14.706 15.909 2.467 258.891 o
3 -10 23 626.542 632.877 11.131 4.173 o
3 -10 24 476.098 513.328 15.686 5.417 o
3 -10 25 84.918 84.835 4.887 45.241 o
3 -10 26 101.699 95.605 6.893 35.456 o
3 -10 27 27.797 27.479 3.273 140.455 o
3 -10 28 0.841 4.114 4.782 378.019 o
3 -10 29 14.036 21.440 3.919 196.989 o
3 -10 30 78.129 90.453 4.426 47.586 o
3 -10 31 5.256 3.432 1.966 729.065 o
3 -9 0 4554.470 4859.160 118.208 0.133 o
3 -9 1 138.146 111.949 8.454 25.982 o
3 -9 2 111.814 76.278 6.602 35.844 o
3 -9 3 7879.750 7144.260 373.536 0.034 o
3 -9 4 70.945 54.109 7.502 48.996 o
3 -9 5 2330.300 2240.740 84.191 0.410 o
3 -9 6 7335.900 7327.100 377.201 0.035 o
3 -9 7 595.415 639.380 27.510 3.424 o
3 -9 8 8172.450 7814.690 118.926 0.054 o
3 -9 9 116.072 113.434 8.456 28.868 o
3 -9 10 228.808 180.623 5.212 17.048 o
3 -9 11 8314.430 7911.740 85.031 0.055 o
3 -9 12 89.216 76.641 2.945 48.421 o
3 -9 13 444.318 426.414 7.202 6.948 o
3 -9 14 2390.140 2354.820 26.825 0.521 o
3 -9 15 4.050 6.181 2.039 702.003 o
3 -9 16 3833.870 3646.510 46.299 0.228 o
3 -9 17 1151.350 1109.480 16.466 1.738 o
3 -9 18 722.775 796.507 13.953 3.220 o
3 -9 19 79.643 64.646 3.754 53.822 o
3 -9 20 7.179 9.744 3.664 329.365 o
3 -9 21 423.031 436.555 9.134 7.018 o
3 -9 22 1147.770 1200.890 18.999 1.651 o
3 -9 23 588.907 611.389 11.189 4.474 o
3 -9 24 7.157 13.925 3.099 337.663 o
3 -9 25 3.569 11.451 2.870 469.093 o
3 -9 26 75.627 58.359 3.731 57.524 o
3 -9 27 188.685 187.252 7.137 18.718 o
3 -9 28 79.681 84.597 4.159 48.637 o
3 -9 29 79.665 69.018 4.420 51.342 o
3 -9 30 47.804 47.820 7.656 60.828 o
3 -9 31 169.038 194.496 19.845 11.945 o
3 -9 32 31.160 28.274 2.882 134.178 o
3 -8 0 5858.180 5920.860 150.964 0.086 o
3 -8 1 2821.530 2522.690 60.897 0.370 o
3 -8 2 3911.270 3514.930 74.793 0.211 o
3 -8 3 3222.110 2895.300 66.191 0.295 o
3 -8 4 1704.420 1740.380 52.930 0.747 o
3 -8 5 2533.340 2293.380 50.193 0.455 o
3 -8 6 1516.830 1598.270 49.901 0.879 o
3 -8 7 3478.860 3615.740 110.491 0.204 o
3 -8 8 1276.030 1340.700 35.099 1.256 o
3 -8 9 19563.500 19161.700 576.955 0.008 o
3 -8 10 349.828 338.236 27.143 5.748 o
3 -8 11 5917.120 5874.810 140.323 0.087 o
3 -8 12 128.196 124.534 5.796 29.307 o
3 -8 13 2838.770 2754.300 36.356 0.384 o
3 -8 14 9428.410 9183.830 92.901 0.042 o
3 -8 15 159.289 187.468 5.792 21.778 o
3 -8 16 263.340 308.302 5.685 12.383 o
3 -8 17 3465.580 3305.170 35.941 0.277 o
3 -8 18 2929.350 2804.880 32.220 0.371 o
3 -8 19 1872.420 1811.330 23.492 0.792 o
3 -8 20 5.893 17.291 2.396 378.033 o
3 -8 21 1070.860 1168.930 16.371 1.818 o
3 -8 22 9422.150 9341.560 113.313 0.041 o
3 -8 23 162.197 144.720 4.602 24.307 o
3 -8 24 3000.190 3138.670 40.467 0.332 o
3 -8 25 188.184 209.966 6.347 18.321 o
3 -8 26 240.461 240.327 7.504 14.211 o
3 -8 27 358.357 354.732 9.134 8.741 o
3 -8 28 616.964 628.172 11.715 4.221 o
3 -8 29 1714.310 1737.760 29.532 0.865 o
3 -8 30 284.101 281.151 8.730 11.534 o
3 -8 31 231.028 229.987 10.836 13.666 o
3 -8 33 6.803 6.494 1.530 600.692 o
3 -7 0 30911.300 31208.900 996.607 0.003 o
3 -7 1 3583.610 3274.690 129.773 0.190 o
3 -7 2 6739.690 7088.460 250.243 0.053 o
3 -7 3 1644.360 1663.360 53.689 0.782 o
3 -7 4 5598.540 5739.210 142.435 0.093 o
3 -7 5 280.419 296.398 13.746 10.139 o
3 -7 6 0.253 4.353 4.345 456.777 o
3 -7 7 7195.530 6882.420 157.235 0.063 o
3 -7 8 6318.750 6720.820 159.936 0.073 o
3 -7 9 7884.200 8012.850 153.082 0.053 o
3 -7 10 9261.840 9505.700 219.934 0.036 o
3 -7 11 108.678 142.903 8.348 27.949 o
3 -7 12 30.738 18.449 4.489 128.126 o
3 -7 13 5.009 3.578 4.487 340.634 o
3 -7 14 2774.700 2661.480 36.878 0.401 o
3 -7 15 13008.500 12102.200 122.431 0.024 o
3 -7 16 15.116 9.149 1.925 312.925 o
3 -7 17 826.370 790.992 11.716 2.905 o
3 -7 18 6728.690 6467.080 71.205 0.081 o
3 -7 19 414.683 436.808 8.983 7.145 o
3 -7 20 1711.550 1717.340 25.732 0.888 o
3 -7 21 665.884 659.587 12.109 3.845 o
3 -7 22 96.657 78.153 3.845 44.170 o
3 -7 23 2259.050 2137.350 31.076 0.577 o
3 -7 24 1038.230 1033.780 15.647 2.002 o
3 -7 25 368.080 350.549 7.124 8.837 o
3 -7 26 403.590 397.376 9.068 7.592 o
3 -7 27 0.033 3.227 2.348 1294.720 o
3 -7 28 271.258 279.739 6.546 12.449 o
3 -7 29 595.175 621.367 11.596 4.383 o
3 -7 30 38.297 46.293 3.017 99.978 o
3 -7 31 60.796 50.758 3.237 71.279 o
3 -7 32 366.868 374.844 15.660 7.409 o
3 -7 33 50.278 52.182 4.349 75.220 o
3 -6 0 1178.070 1242.650 58.906 1.069 o
3 -6 1 3382.220 4303.670 187.112 0.134 o
3 -6 2 2888.400 2658.930 82.934 0.318 o
3 -6 3 19147.100 19394.000 439.242 0.009 o
3 -6 4 579.106 690.010 26.534 3.449 o
3 -6 5 15339.300 15968.800 366.785 0.014 o
3 -6 6 438.267 351.997 23.917 5.470 o
3 -6 7 368.056 433.780 17.291 6.745 o
3 -6 8 833.091 736.057 24.133 2.636 o
3 -6 9 1251.190 1193.180 32.574 1.378 o
3 -6 10 99.072 156.795 10.485 25.489 o
3 -6 11 457.284 299.319 14.588 6.862 o
3 -6 12 11.711 9.456 4.169 246.428 o
3 -6 13 2915.840 3159.280 60.367 0.320 o
3 -6 14 323.009 338.023 13.283 8.885 o
3 -6 15 2499.470 2429.570 47.988 0.453 o
3 -6 16 136.262 96.089 4.841 31.237 o
3 -6 17 1.765 2.950 2.912 775.922 o
3 -6 18 8.315 13.064 3.059 328.580 o
3 -6 19 592.877 635.868 15.422 4.168 o
3 -6 20 352.339 355.952 9.509 8.794 o
3 -6 21 3197.000 3240.550 46.267 0.299 o
3 -6 22 264.494 233.314 6.924 13.501 o
3 -6 23 3.253 0.503 2.782 797.347 o
3 -6 24 619.528 596.104 12.377 4.275 o
3 -6 25 180.078 149.138 4.953 22.049 o
3 -6 26 627.034 635.191 12.991 4.089 o
3 -6 27 556.603 606.361 12.290 4.658 o
3 -6 28 107.073 106.636 3.724 37.290 o
3 -6 29 77.960 66.305 4.274 53.061 o
3 -6 30 76.883 86.705 3.270 50.961 o
3 -6 31 71.762 77.904 3.498 54.971 o
3 -6 32 2.305 1.705 1.552 1461.480 o
3 -6 33 193.829 205.353 15.847 13.182 o
3 -5 0 2808.500 3013.390 76.923 0.317 o
3 -5 1 3255.960 3644.680 91.020 0.235 o
3 -5 2 3198.580 2996.450 77.674 0.279 o
3 -5 3 397.182 651.357 32.055 3.876 o
3 -5 4 380.572 288.305 15.209 7.933 o
3 -5 5 48.092 65.799 7.930 54.578 o
3 -5 6 9963.510 10120.100 192.567 0.034 o
3 -5 7 313.693 307.350 13.898 9.242 o
3 -5 8 445.953 393.672 21.832 5.515 o
3 -5 9 2025.450 1760.820 42.814 0.675 o
3 -5 10 2278.690 2476.670 162.236 0.229 o
3 -5 11 13.173 9.005 8.810 98.796 o
3 -5 12 516.984 434.202 36.841 3.407 o
3 -5 13 442.281 376.634 15.908 6.406 o
3 -5 14 4.512 8.674 8.187 128.031 o
3 -5 15 852.321 861.415 47.795 1.728 o
3 -5 16 299.869 296.272 11.024 10.354 o
3 -5 17 1250.900 1134.440 27.220 1.473 o
3 -5 18 0.618 3.369 3.010 824.817 o
3 -5 19 275.223 239.760 10.788 11.923 o
3 -5 20 1311.440 1299.390 25.451 1.339 o
3 -5 21 602.653 633.570 14.150 4.182 o
3 -5 22 73.581 90.214 5.338 47.385 o
3 -5 23 45.656 40.129 4.224 86.805 o
3 -5 24 197.229 185.434 6.247 18.586 o
3 -5 25 2505.680 2471.540 38.711 0.464 o
3 -5 26 129.495 122.396 6.177 28.893 o
3 -5 27 470.968 460.638 10.281 6.186 o
3 -5 28 369.771 367.498 7.986 8.543 o
3 -5 29 284.883 286.468 6.535 11.873 o
3 -5 30 85.046 92.010 3.187 46.748 o
3 -5 31 158.961 144.516 4.114 24.945 o
3 -5 32 82.788 78.228 3.124 50.477 o
3 -5 33 2.494 4.771 1.970 931.335 o
3 -5 34 13.090 6.391 2.160 357.953 o
3 -4 0 719.348 767.816 28.361 2.752 o
3 -4 1 7016.210 6732.510 157.837 0.065 o
3 -4 2 2153.190 2298.450 60.688 0.505 o
3 -4 3 66.456 122.648 9.402 35.111 o
3 -4 4 15761.400 15915.300 360.954 0.013 o
3 -4 5 3706.910 3630.710 93.054 0.206 o
3 -4 6 522.185 496.526 29.123 3.926 o
3 -4 7 21526.700 22686.400 721.504 0.006 o
3 -4 8 87.679 88.139 25.911 11.615 o
3 -4 9 25.780 8.243 5.193 143.484 o
3 -4 10 20477.500 21010.300 807.384 0.006 o
3 -4 11 744.746 767.815 22.773 2.898 o
3 -4 12 1126.920 1225.720 38.142 1.412 o
3 -4 13 7.440 -1.477 9.055 110.243 o
3 -4 14 413.082 462.283 32.846 4.157 o
3 -4 15 8240.070 7809.290 191.387 0.048 o
3 -4 16 1342.040 1360.990 37.845 1.165 o
3 -4 17 113.953 92.329 4.865 36.067 o
3 -4 18 4320.780 4103.630 59.645 0.181 o
3 -4 19 2799.390 2921.040 53.890 0.357 o
3 -4 20 873.588 892.978 24.899 2.317 o
3 -4 21 1063.580 966.393 22.437 1.920 o
3 -4 22 9.897 10.257 3.171 318.768 o
3 -4 23 5708.330 5564.970 84.818 0.105 o
3 -4 24 989.529 1027.860 21.576 2.012 o
3 -4 25 930.800 950.659 20.268 2.232 o
3 -4 26 439.038 423.223 11.448 6.678 o
3 -4 27 26.866 19.791 3.441 153.538 o
3 -4 28 548.654 560.729 11.647 4.918 o
3 -4 29 118.014 121.016 4.327 32.774 o
3 -4 30 1006.290 1041.750 17.413 2.032 o
3 -4 31 291.609 317.866 7.004 11.098 o
3 -4 32 292.009 292.279 6.523 11.554 o
3 -4 33 450.568 479.305 13.446 6.031 o
3 -4 34 6.196 5.994 2.510 518.663 o
3 -3 0 61822.100 63455.700 1977.680 0.001 o
3 -3 1 1579.560 1456.300 48.002 0.898 o
3 -3 2 9.835 15.856 3.791 252.741 o
3 -3 3 1591.630 2018.980 47.150 0.769 o
3 -3 4 8180.730 8340.280 271.431 0.040 o
3 -3 5 7450.070 8060.610 262.970 0.045 o
3 -3 6 94.455 62.813 6.734 41.751 o
3 -3 7 1949.310 2276.080 59.603 0.559 o
3 -3 8 4790.940 5060.970 120.973 0.123 o
3 -3 9 487.637 423.600 17.320 5.552 o
3 -3 10 3198.800 3295.070 68.374 0.276 o
3 -3 11 267.687 197.132 10.986 12.839 o
3 -3 12 880.274 828.077 27.384 2.307 o
3 -3 13 1954.220 1981.730 83.657 0.496 o
3 -3 14 161.209 289.091 25.141 8.698 o
3 -3 15 6.258 15.847 10.280 80.941 o
3 -3 16 11622.900 11851.300 450.237 0.018 o
3 -3 17 2029.510 2023.960 37.120 0.649 o
3 -3 18 5.060 5.051 2.934 520.124 o
3 -3 19 4608.170 4503.690 65.320 0.157 o
3 -3 20 1542.050 1340.570 26.344 1.114 o
3 -3 21 388.144 437.266 12.629 7.119 o
3 -3 22 1862.130 1832.670 37.194 0.744 o
3 -3 23 81.388 79.286 5.586 45.956 o
3 -3 24 4088.820 4179.270 65.869 0.188 o
3 -3 25 880.767 891.790 17.561 2.476 o
3 -3 26 6.535 11.653 3.425 343.039 o
3 -3 27 151.423 135.100 6.139 25.127 o
3 -3 28 110.596 120.242 8.064 29.726 o
3 -3 29 5.894 5.019 2.773 512.758 o
3 -3 30 85.445 88.399 4.531 45.112 o
3 -3 31 445.796 531.844 13.626 5.797 o
3 -3 32 176.703 203.412 4.934 19.983 o
3 -3 33 728.197 724.055 20.887 3.100 o
3 -3 34 11.831 16.335 2.884 270.913 o
3 -2 0 11335.800 11524.500 260.315 0.025 o
3 -2 1 14968.900 16518.500 369.863 0.014 o
3 -2 2 2730.640 2764.030 96.972 0.304 o
3 -2 3 48184.800 47586.100 1485.180 0.001 o
3 -2 4 22.962 23.132 7.120 100.247 o
3 -2 5 593.973 637.365 29.897 3.283 o
3 -2 6 9719.170 9231.230 210.924 0.036 o
3 -2 7 2999.170 3178.390 78.274 0.288 o
3 -2 8 4340.510 4782.620 113.475 0.143 o
3 -2 9 2588.620 2903.840 72.378 0.356 o
3 -2 10 3419.760 3845.050 77.138 0.230 o
3 -2 11 4650.460 4709.280 113.505 0.135 o
3 -2 12 2037.670 1911.800 79.368 0.504 o
3 -2 13 1695.140 2106.810 86.465 0.522 o
3 -2 14 2980.340 3444.170 130.526 0.214 o
3 -2 15 652.192 634.478 39.019 2.595 o
3 -2 16 2.309 17.593 10.778 77.309 o
3 -2 17 1781.630 1629.350 32.200 0.847 o
3 -2 18 329.628 319.625 9.364 9.685 o
3 -2 19 790.706 941.747 18.414 2.632 o
3 -2 20 1504.000 1469.810 37.711 1.015 o
3 -2 21 152.741 142.717 6.506 24.261 o
3 -2 22 1489.550 1536.730 31.281 1.049 o
3 -2 23 0.393 -0.638 4.128 581.159 o
3 -2 24 2626.880 2730.910 45.634 0.408 o
3 -2 25 400.610 411.304 13.689 6.990 o
3 -2 26 453.008 464.423 13.026 6.124 o
3 -2 27 1610.850 1661.630 54.242 0.792 o
3 -2 28 93.246 73.520 4.122 45.700 o
3 -2 29 130.887 133.201 6.648 27.441 o
3 -2 30 238.911 227.782 7.964 14.417 o
3 -2 31 52.712 46.168 3.136 81.186 o
3 -2 32 47.076 67.075 3.657 74.484 o
3 -2 33 17.941 16.675 2.477 227.311 o
3 -1 0 1524.400 1455.040 56.102 0.861 o
3 -1 1 16764.200 18377.900 580.237 0.009 o
3 -1 2 17372.800 18378.300 580.277 0.009 o
3 -1 3 15535.100 15897.900 503.305 0.012 o
3 -1 4 251.510 278.967 17.085 9.990 o
3 -1 5 3541.920 3311.300 79.679 0.238 o
3 -1 6 2586.490 2802.050 100.758 0.309 o
3 -1 7 1807.700 1787.390 46.226 0.734 o
3 -1 8 116.649 126.791 7.751 28.715 o
3 -1 9 10.600 16.472 5.345 181.820 o
3 -1 10 476.985 391.908 15.351 6.016 o
3 -1 11 1348.160 1399.990 38.991 1.134 o
3 -1 12 81.073 86.191 13.402 27.187 o
3 -1 13 1384.190 1602.200 69.412 0.779 o
3 -1 14 981.280 960.985 48.949 1.500 o
3 -1 15 101.205 140.367 17.412 17.538 o
3 -1 16 1.558 -0.440 3.725 634.323 o
3 -1 17 4241.980 4624.890 81.777 0.164 o
3 -1 18 294.533 301.040 12.609 10.046 o
3 -1 19 6.762 9.629 3.433 356.217 o
3 -1 20 471.857 477.328 12.169 5.935 o
3 -1 21 171.251 155.812 7.069 21.382 o
3 -1 22 2876.500 2813.140 50.235 0.359 o
3 -1 23 6.350 6.968 3.148 421.395 o
3 -1 24 335.810 352.288 10.076 9.076 o
3 -1 25 0.187 2.562 3.311 781.581 o
3 -1 26 562.716 551.964 12.484 4.799 o
3 -1 27 169.429 160.391 6.139 21.901 o
3 -1 28 141.118 140.141 8.334 24.130 o
3 -1 29 262.272 284.788 15.064 10.327 o
3 -1 30 361.289 351.774 9.045 8.725 o
3 -1 31 351.464 384.649 11.547 8.241 o
3 -1 32 383.945 365.290 11.672 7.841 o
3 -1 33 118.718 108.383 6.404 31.561 o
3 0 0 89285.700 90035.900 4247.440 0.000 o
3 0 1 26221.300 26128.500 992.057 0.004 o
3 0 2 8723.050 8701.830 199.507 0.042 o
3 0 3 1500.060 1623.220 43.834 0.927 o
3 0 4 6.820 2.419 4.842 291.040 o
3 0 5 4169.850 4233.470 155.339 0.135 o
3 0 6 645.122 743.147 21.963 3.329 o
3 0 7 69.785 53.967 5.746 55.746 o
3 0 8 6584.450 7317.110 236.665 0.056 o
3 0 9 3268.240 3331.540 81.691 0.255 o
3 0 10 3085.830 2840.260 81.930 0.291 o
3 0 11 4582.770 4786.610 114.035 0.135 o
3 0 12 1978.840 1996.370 79.691 0.506 o
3 0 13 5530.190 5949.470 204.873 0.077 o
3 0 14 3703.350 4120.160 148.926 0.154 o
3 0 15 4009.500 4258.290 154.836 0.139 o
3 0 16 14.669 47.773 4.349 133.824 o
3 0 17 1231.360 1210.810 35.960 1.346 o
3 0 18 3106.760 3182.630 94.854 0.258 o
3 0 19 649.307 619.028 20.232 3.664 o
3 0 20 245.637 256.016 16.561 10.581 o
3 0 21 3638.300 3757.000 84.827 0.213 o
3 0 22 0.737 4.492 3.302 671.639 o
3 0 23 1121.260 1114.270 25.018 1.677 o
3 0 24 1841.690 1933.920 26.267 0.771 o
3 0 25 7.822 9.399 3.250 354.038 o
3 0 26 860.327 877.480 17.138 2.558 o
3 0 27 21.634 21.325 3.359 172.622 o
3 0 28 777.447 797.815 15.458 2.975 o
3 0 29 575.907 613.952 11.899 4.519 o
3 0 30 180.696 190.299 6.459 19.521 o
3 0 31 134.133 126.319 3.884 29.795 o
3 0 32 112.971 108.822 5.273 34.000 o
3 0 33 205.158 161.849 12.421 15.557 o
3 1 0 5479.140 5173.980 121.010 0.106 o
3 1 1 3124.410 3376.660 67.458 0.280 o
3 1 2 4717.260 4847.780 110.768 0.132 o
3 1 3 22114.400 21304.000 601.841 0.007 o
3 1 4 1375.300 1550.650 40.342 1.051 o
3 1 5 323.619 253.436 12.415 9.968 o
3 1 6 4112.040 4048.270 154.604 0.139 o
3 1 7 12.180 31.823 5.478 142.871 o
3 1 8 154.577 349.811 21.436 9.703 o
3 1 9 1228.000 959.975 29.250 1.578 o
3 1 10 1216.370 1243.350 36.027 1.344 o
3 1 11 12191.100 12454.300 402.619 0.018 o
3 1 12 11156.700 11752.800 382.388 0.021 o
3 1 13 1486.450 1623.770 67.547 0.753 o
3 1 14 3392.650 3384.460 124.566 0.201 o
3 1 15 130.035 86.016 6.407 31.533 o
3 1 16 862.568 819.761 23.105 2.479 o
3 1 17 3748.730 3510.430 98.011 0.203 o
3 1 18 265.316 250.341 7.953 12.879 o
3 1 19 882.618 955.787 27.760 2.158 o
3 1 20 1636.040 1653.260 29.643 0.930 o
3 1 21 2533.720 2739.020 48.271 0.419 o
3 1 22 801.378 931.222 16.733 2.657 o
3 1 23 58.065 59.594 3.967 67.507 o
3 1 24 1426.550 1468.540 28.693 1.137 o
3 1 25 1525.460 1648.540 26.002 1.019 o
3 1 26 1391.190 1466.860 23.363 1.204 o
3 1 27 2.760 3.531 2.554 780.551 o
3 1 28 61.735 64.776 4.441 61.687 o
3 1 29 0.745 4.372 2.402 1020.090 o
3 1 30 80.978 75.021 3.645 51.060 o
3 1 31 253.610 233.498 8.284 13.568 o
3 1 32 1059.350 1016.380 35.678 1.651 o
3 2 0 2718.050 2596.280 54.370 0.391 o
3 2 1 13065.900 12866.100 238.535 0.021 o
3 2 2 5188.020 5671.990 136.634 0.103 o
3 2 3 5023.310 4902.190 190.859 0.095 o
3 2 4 21984.600 22188.200 1074.210 0.004 o
3 2 5 2108.520 2149.960 106.665 0.380 o
3 2 6 1961.400 2169.010 165.412 0.245 o
3 2 7 6570.940 6307.430 303.635 0.049 o
3 2 8 61.356 34.325 5.772 66.484 o
3 2 9 2262.170 2137.080 47.419 0.537 o
3 2 10 1236.260 1320.620 40.461 1.237 o
3 2 11 1632.410 1690.150 49.704 0.806 o
3 2 12 489.088 395.397 18.985 5.483 o
3 2 13 9.835 18.063 3.870 239.436 o
3 2 14 1275.620 1226.690 46.453 1.169 o
3 2 15 520.616 490.785 14.420 5.240 o
3 2 16 283.305 295.970 12.024 10.536 o
3 2 17 194.650 193.684 8.834 17.263 o
3 2 18 2515.140 2605.420 57.389 0.417 o
3 2 19 3479.830 3721.750 67.076 0.238 o
3 2 20 562.426 537.249 12.392 4.861 o
3 2 21 3561.390 3742.330 62.565 0.234 o
3 2 22 200.766 208.233 9.068 16.372 o
3 2 23 1354.960 1431.280 23.897 1.247 o
3 2 24 720.824 750.821 17.491 3.204 o
3 2 25 118.005 142.795 5.227 30.015 o
3 2 26 357.643 359.844 8.120 8.837 o
3 2 27 84.479 84.138 4.577 46.115 o
3 2 28 420.283 475.950 12.591 6.470 o
3 2 29 19.356 17.424 2.361 216.982 o
3 2 30 1303.520 1330.890 37.835 1.208 o
3 2 31 92.900 94.941 11.321 28.980 o
3 2 32 154.238 129.506 6.574 24.789 o
3 3 0 23163.200 22457.800 411.961 0.007 o
3 3 1 2526.570 2641.300 75.875 0.375 o
3 3 2 7177.820 7344.600 291.933 0.045 o
3 3 3 2470.130 2384.650 211.677 0.158 o
3 3 4 130.390 196.563 12.634 18.677 o
3 3 5 1470.970 1869.980 58.368 0.778 o
3 3 6 1416.620 1762.630 103.809 0.517 o
3 3 7 1430.250 1245.050 64.199 0.879 o
3 3 8 13991.000 13922.800 392.941 0.016 o
3 3 9 1346.290 1388.640 36.880 1.161 o
3 3 10 8.473 11.148 3.293 325.462 o
3 3 11 383.830 408.201 15.585 6.965 o
3 3 12 968.531 1091.330 35.654 1.722 o
3 3 13 4601.250 4099.330 216.746 0.098 o
3 3 14 303.246 311.918 9.800 10.335 o
3 3 15 16.839 12.401 2.724 247.004 o
3 3 16 96.687 91.512 5.413 39.674 o
3 3 17 3.959 4.414 3.033 562.779 o
3 3 18 53.522 32.101 3.848 84.569 o
3 3 19 1889.440 1982.570 34.014 0.716 o
3 3 20 33.848 46.539 4.051 99.520 o
3 3 21 1.304 8.201 2.803 650.436 o
3 3 22 39.909 36.541 3.540 101.700 o
3 3 23 29.025 28.137 3.457 133.772 o
3 3 24 3565.560 3805.380 58.092 0.235 o
3 3 25 267.503 280.376 7.175 12.440 o
3 3 26 394.395 408.933 9.381 7.612 o
3 3 27 373.188 377.912 9.295 8.230 o
3 3 28 101.753 101.456 4.743 38.056 o
3 3 29 656.865 662.902 45.736 2.234 o
3 3 30 39.477 38.044 4.578 93.413 o
3 4 0 4086.430 4127.220 90.475 0.177 o
3 4 1 6510.570 5998.790 168.684 0.073 o
3 4 2 124.131 82.462 10.016 27.672 o
3 4 3 2974.030 2877.900 206.629 0.146 o
3 4 4 4301.520 4788.390 489.912 0.034 o
3 4 5 1087.530 1230.350 102.535 0.635 o
3 4 6 7207.900 6673.790 863.985 0.012 o
3 4 7 94.159 121.254 11.910 26.085 o
3 4 8 53.573 62.974 8.030 52.285 o
3 4 9 446.246 378.988 15.225 6.433 o
3 4 10 6.891 15.682 3.810 283.245 o
3 4 11 2269.620 2287.650 124.481 0.310 o
3 4 12 315.158 335.651 13.449 9.027 o
3 4 13 17.500 27.395 2.907 186.799 o
3 4 14 0.060 1.483 2.820 1122.640 o
3 4 15 183.553 218.213 13.934 14.387 o
3 4 16 1085.420 1085.600 19.838 1.821 o
3 4 17 134.932 125.246 4.997 28.922 o
3 4 18 12.198 12.977 2.935 283.397 o
3 4 19 411.682 484.477 9.531 6.815 o
3 4 20 209.335 209.171 6.441 16.957 o
3 4 21 526.544 585.189 12.208 4.962 o
3 4 22 124.852 143.661 6.799 27.403 o
3 4 23 758.161 804.548 17.098 2.983 o
3 4 24 282.009 301.555 8.552 11.327 o
3 4 25 1891.040 2020.090 35.404 0.703 o
3 4 26 943.909 1030.770 25.252 2.025 o
3 4 27 140.025 163.677 5.539 25.216 o
3 4 28 16.409 17.897 3.062 218.335 o
3 4 29 10.950 11.760 2.720 318.480 o
3 4 30 304.362 269.516 7.674 11.316 o
3 5 0 1550.180 1348.520 61.795 0.826 o
3 5 1 46.331 48.698 8.107 58.921 o
3 5 2 0.730 8.609 9.231 110.607 o
3 5 3 1191.780 999.967 54.775 1.198 o
3 5 4 9085.810 7994.050 277.897 0.036 o
3 5 5 813.923 885.305 48.325 1.746 o
3 5 6 6.222 13.414 8.573 110.732 o
3 5 7 6468.290 6246.640 332.717 0.046 o
3 5 8 672.962 730.942 100.912 0.796 o
3 5 9 4253.540 3819.950 79.052 0.182 o
3 5 10 3327.850 3002.580 55.025 0.291 o
3 5 11 1578.440 1453.740 26.003 1.049 o
3 5 12 6642.610 6449.960 104.280 0.079 o
3 5 13 186.171 219.138 9.715 16.559 o
3 5 14 1072.190 996.855 19.999 1.916 o
3 5 15 178.581 235.150 8.901 16.950 o
3 5 16 1473.310 1489.710 25.998 1.112 o
3 5 17 1502.470 1570.130 30.438 1.034 o
3 5 18 1209.910 1354.350 24.151 1.428 o
3 5 19 987.681 1077.450 20.348 1.989 o
3 5 20 1421.180 1524.000 27.887 1.126 o
3 5 21 1825.710 1959.400 36.062 0.738 o
3 5 22 5.806 19.973 3.719 276.463 o
3 5 23 656.966 739.283 16.141 3.543 o
3 5 24 16.434 23.550 3.951 178.252 o
3 5 25 2062.670 2143.860 43.733 0.600 o
3 5 26 472.122 527.154 16.748 5.296 o
3 5 27 767.351 808.752 21.881 2.795 o
3 5 28 1578.810 1489.610 42.061 0.933 o
3 5 29 77.143 69.237 10.533 35.706 o
3 6 0 4477.240 4215.840 111.962 0.149 o
3 6 1 864.511 854.897 49.764 1.663 o
3 6 2 15574.100 16217.100 947.608 0.007 o
3 6 3 1352.910 1405.440 94.602 0.621 o
3 6 4 296.181 364.524 38.705 4.196 o
3 6 5 22600.400 21275.200 491.748 0.007 o
3 6 6 360.765 353.617 12.235 8.241 o
3 6 7 536.813 480.984 12.430 5.289 o
3 6 8 3966.870 3995.980 90.213 0.185 o
3 6 9 22.919 21.277 4.276 150.050 o
3 6 10 12331.200 11697.300 188.510 0.024 o
3 6 11 33.669 46.710 4.116 99.149 o
3 6 12 168.624 163.675 6.780 21.445 o
3 6 13 2641.930 2566.560 47.450 0.416 o
3 6 14 9.305 24.572 3.817 220.536 o
3 6 15 488.980 440.760 13.429 5.838 o
3 6 16 48.059 55.536 5.168 71.578 o
3 6 17 60.384 72.431 5.816 55.589 o
3 6 18 161.122 152.910 7.538 22.123 o
3 6 19 393.698 452.884 14.594 6.697 o
3 6 20 482.649 509.800 15.448 5.397 o
3 6 21 86.410 78.057 6.096 43.326 o
3 6 22 73.603 74.586 5.609 49.753 o
3 6 23 155.498 143.025 8.310 22.533 o
3 6 24 97.739 97.403 6.599 36.648 o
3 6 25 363.497 380.479 10.567 8.211 o
3 6 26 78.004 81.071 4.203 49.948 o
3 6 27 30.837 31.977 3.843 120.261 o
3 6 28 492.605 429.324 15.853 5.630 o
3 7 0 104.564 124.256 6.663 32.351 o
3 7 1 87.094 85.653 5.865 42.431 o
3 7 2 263.364 279.428 8.355 12.326 o
3 7 3 1696.600 1826.680 35.309 0.826 o
3 7 4 1736.490 1783.860 32.944 0.828 o
3 7 5 2475.730 2585.300 43.838 0.450 o
3 7 6 222.640 188.385 7.601 16.348 o
3 7 7 361.729 420.006 10.378 7.931 o
3 7 8 404.357 376.663 9.833 7.659 o
3 7 9 4108.710 3788.890 79.677 0.190 o
3 7 10 582.404 531.258 13.259 4.688 o
3 7 11 488.861 444.318 13.735 5.794 o
3 7 12 828.256 851.298 18.937 2.640 o
3 7 13 822.874 806.669 18.235 2.740 o
3 7 14 2.788 1.150 3.321 642.993 o
3 7 15 0.139 1.915 3.828 629.955 o
3 7 16 212.685 206.935 8.854 15.862 o
3 7 17 571.960 631.729 17.663 4.175 o
3 7 18 14.564 11.182 4.065 221.447 o
3 7 19 0.672 0.184 3.209 897.529 o
3 7 20 76.203 67.733 5.363 50.764 o
3 7 21 149.218 133.741 6.602 25.105 o
3 7 22 282.800 332.264 13.245 9.797 o
3 7 23 1067.980 1069.910 29.907 1.707 o
3 7 24 611.974 643.530 21.467 3.712 o
3 7 25 734.728 695.496 18.818 3.208 o
3 8 0 157.267 127.014 5.732 25.211 o
3 8 1 571.594 517.589 9.447 5.019 o
3 8 2 1690.950 1530.490 23.326 0.964 o
3 8 3 20.160 28.115 3.892 154.890 o
3 8 4 192.302 197.057 6.261 18.518 o
3 8 5 852.384 891.673 17.726 2.547 o
3 8 6 124.750 125.719 7.153 28.312 o
3 8 7 75.352 80.327 5.662 47.795 o
3 8 8 17.792 23.187 3.114 192.085 o
3 8 9 8.036 8.283 3.195 364.988 o
3 8 10 85.666 106.599 6.342 38.947 o
3 8 11 916.364 925.133 21.393 2.268 o
3 8 12 70.845 81.092 5.613 49.541 o
3 8 13 8.914 4.771 3.015 399.318 o
3 8 14 637.824 634.752 16.408 3.876 o
3 8 15 5.560 17.526 4.602 242.604 o
3 8 16 170.560 177.076 8.021 19.954 o
3 8 17 186.422 192.248 7.020 18.759 o
3 8 18 373.940 401.451 10.258 7.898 o
3 8 19 141.689 110.288 5.857 28.284 o
3 8 20 264.928 214.695 13.205 11.841 o
3 8 21 12.805 12.918 5.892 162.276 o
3 8 22 0.431 4.459 3.454 647.974 o
3 8 23 1362.360 1389.540 32.507 1.189 o
3 8 24 187.117 200.299 6.939 18.467 o
3 9 0 8690.090 8655.060 155.987 0.045 o
3 9 1 573.609 483.422 10.281 5.100 o
3 9 2 657.026 615.511 12.043 4.013 o
3 9 3 1537.810 1521.440 36.381 0.988 o
3 9 4 143.473 135.831 6.527 25.735 o
3 9 5 1571.900 1620.730 26.191 0.997 o
3 9 6 81.933 68.315 4.322 50.730 o
3 9 7 641.452 698.816 13.770 3.808 o
3 9 8 0.863 4.610 2.914 781.436 o
3 9 9 2663.010 2712.430 45.501 0.404 o
3 9 10 581.374 552.576 12.110 4.683 o
3 9 11 50.424 62.694 4.490 70.065 o
3 9 12 174.863 154.649 7.315 20.963 o
3 9 13 1685.980 1619.400 42.669 0.841 o
3 9 14 8.221 13.004 6.361 164.908 o
3 9 15 964.807 1108.160 32.959 1.770 o
3 9 16 16.982 12.792 2.915 237.909 o
3 9 17 214.887 195.008 6.716 16.947 o
3 9 18 1526.880 1536.240 38.273 0.976 o
3 9 19 2.846 3.557 2.542 775.541 o
3 9 20 1489.350 1445.640 36.416 1.042 o
3 9 21 1545.890 1592.850 47.586 0.883 o
3 9 22 382.791 362.896 13.775 7.568 o
3 9 23 26.465 17.161 1.965 182.572 o
3 10 0 8734.230 8676.160 166.213 0.044 o
3 10 1 598.272 634.512 12.642 4.276 o
3 10 2 133.856 148.827 4.971 27.376 o
3 10 3 2845.600 2708.440 47.814 0.373 o
3 10 4 362.447 313.770 8.338 9.183 o
3 10 5 2260.010 2127.570 38.966 0.560 o
3 10 6 10429.100 10045.900 221.884 0.031 o
3 10 7 571.641 613.781 13.045 4.492 o
3 10 8 47.174 66.097 4.248 72.360 o
3 10 9 762.221 781.044 17.659 2.993 o
3 10 10 422.729 464.721 12.252 6.543 o
3 10 11 1783.240 1685.060 36.038 0.815 o
3 10 12 213.466 211.287 8.683 15.781 o
3 10 13 1980.750 2045.810 72.827 0.528 o
3 10 14 1913.890 2022.400 41.800 0.672 o
3 10 15 321.688 335.405 10.402 9.502 o
3 10 16 57.499 55.085 3.653 70.781 o
3 10 17 231.450 226.324 6.274 15.326 o
3 10 18 149.868 149.706 9.523 21.712 o
3 10 19 981.852 1001.420 36.556 1.746 o
3 10 20 67.401 54.960 5.528 57.498 o
3 10 21 49.622 20.210 2.827 103.857 o
3 11 0 1898.020 1769.520 28.037 0.776 o
3 11 1 304.550 257.043 6.642 11.694 o
3 11 2 2359.540 2315.420 31.321 0.526 o
3 11 3 16.817 27.089 3.274 183.471 o
3 11 4 3087.430 2981.740 46.575 0.326 o
3 11 5 2.736 5.211 2.660 688.864 o
3 11 6 20.062 18.044 3.740 179.195 o
3 11 7 1655.010 1674.940 31.151 0.906 o
3 11 8 38.591 35.285 3.673 103.870 o
3 11 9 131.614 155.988 7.169 25.391 o
3 11 10 470.544 510.810 12.217 5.776 o
3 11 11 773.179 820.154 17.968 2.881 o
3 11 12 192.738 246.206 15.691 12.599 o
3 11 13 248.964 248.583 9.548 13.065 o
3 11 14 789.580 813.583 23.383 2.673 o
3 11 15 209.029 247.896 8.869 15.014 o
3 11 16 0.674 -0.681 1.946 2148.440 o
3 11 17 3.314 6.863 3.450 470.825 o
3 11 18 204.165 173.853 46.069 3.883 o
3 12 0 29.104 35.581 4.222 115.951 o
3 12 1 33.551 35.388 4.080 109.030 o
3 12 2 1728.190 1699.930 47.344 0.778 o
3 12 3 145.224 135.847 6.488 25.552 o
3 12 4 338.276 359.611 11.929 8.644 o
3 12 5 358.114 372.856 10.455 8.390 o
3 12 6 78.811 79.879 4.833 48.514 o
3 12 7 322.907 317.528 8.876 9.952 o
3 12 8 273.306 315.525 10.335 10.968 o
3 12 9 1193.660 1303.900 24.516 1.471 o
3 12 10 178.416 173.717 8.783 19.018 o
3 12 11 694.185 739.961 23.810 3.070 o
3 12 12 657.944 740.602 17.032 3.500 o
3 12 13 38.764 36.078 3.167 106.647 o
3 12 14 23.632 19.925 2.193 186.787 o
3 12 15 125.989 118.368 6.538 29.363 o
3 13 0 2643.610 2805.960 71.574 0.357 o
3 13 1 215.338 232.701 7.926 15.435 o
3 13 2 93.335 104.381 4.842 39.739 o
3 13 3 21.493 31.602 3.690 147.784 o
3 13 4 12.130 11.348 3.035 289.133 o
3 13 5 22.023 17.310 3.265 182.088 o
3 13 6 443.582 455.139 14.012 6.177 o
3 13 7 0.061 -0.349 2.976 1144.370 o
3 13 8 364.559 381.941 13.219 7.787 o
3 13 9 72.790 79.671 4.283 52.344 o
3 13 10 42.209 44.261 3.817 91.030 o
3 13 11 0.677 1.086 1.761 2100.310 o
3 13 12 402.998 332.044 13.489 7.540 o
3 14 0 499.470 500.858 11.218 5.619 o
3 14 1 435.641 420.721 9.774 6.898 o
3 14 2 460.329 449.981 10.063 6.384 o
3 14 3 737.887 750.736 14.203 3.243 o
3 14 4 184.007 208.732 12.001 15.689 o
3 14 5 383.793 366.586 16.608 7.077 o
3 14 6 501.785 345.670 17.767 5.730 o
3 14 7 645.532 644.292 24.185 3.411 o
3 14 8 16.358 16.642 3.000 225.050 o
3 15 0 905.542 773.919 28.094 2.290 o
3 15 1 9.412 7.500 2.738 382.031 o
4 -18 0 1490.700 1285.760 43.209 1.036 o
4 -18 1 588.997 575.809 21.395 3.997 o
4 -18 3 7.828 6.672 2.455 457.595 o
4 -18 4 295.625 248.205 10.554 11.237 o
4 -18 5 48.033 46.883 4.204 80.626 o
4 -18 6 1163.060 1009.120 34.428 1.549 o
4 -18 7 247.481 192.545 8.873 14.512 o
4 -18 8 917.636 725.293 25.369 2.396 o
4 -17 0 33.699 32.561 3.974 112.419 o
4 -17 1 1965.630 1878.600 46.463 0.661 o
4 -17 2 0.335 6.017 3.002 737.708 o
4 -17 3 7.065 1.901 3.407 439.018 o
4 -17 4 448.736 385.567 26.052 4.983 o
4 -17 5 1434.610 1298.860 31.199 1.178 o
4 -17 6 1542.250 1389.360 33.270 1.049 o
4 -17 7 679.832 622.609 46.498 2.196 o
4 -17 8 17.483 15.757 2.627 230.463 o
4 -17 9 41.431 40.880 11.169 46.807 o
4 -17 10 47.260 45.212 5.543 74.488 o
4 -17 11 0.673 0.498 3.705 679.445 o
4 -17 12 2029.490 1963.490 65.143 0.556 o
4 -17 13 12.870 14.406 3.368 250.162 o
4 -17 14 25.291 24.065 2.630 163.494 o
4 -17 15 380.237 329.024 13.318 7.943 o
4 -17 16 72.178 46.178 3.782 63.026 o
4 -16 0 328.991 347.667 12.508 8.829 o
4 -16 1 108.125 109.577 8.412 30.470 o
4 -16 2 90.824 85.487 4.721 43.472 o
4 -16 3 198.894 190.644 6.898 18.015 o
4 -16 4 0.329 2.034 2.911 981.552 o
4 -16 5 579.906 614.426 25.753 3.655 o
4 -16 6 400.391 437.817 20.061 5.966 o
4 -16 7 66.749 84.443 6.059 49.275 o
4 -16 8 200.136 226.416 8.632 16.109 o
4 -16 9 48.092 45.987 4.346 80.254 o
4 -16 10 486.795 457.138 20.444 5.095 o
4 -16 11 22.000 24.181 4.917 136.615 o
4 -16 12 73.318 70.713 6.448 48.260 o
4 -16 13 124.243 134.509 6.269 28.680 o
4 -16 14 0.918 1.288 2.728 1054.160 o
4 -16 15 5.500 4.120 2.837 536.392 o
4 -16 16 66.891 60.129 4.129 60.944 o
4 -16 17 147.044 153.300 6.046 24.645 o
4 -16 18 455.101 372.474 11.192 6.822 o
4 -16 19 414.052 326.371 37.875 3.889 o
4 -16 20 150.049 97.656 5.204 28.551 o
4 -15 0 687.539 667.069 17.520 3.512 o
4 -15 1 707.806 712.301 15.181 3.415 o
4 -15 2 194.381 231.482 8.486 16.349 o
4 -15 3 56.565 54.592 4.404 68.818 o
4 -15 4 333.454 357.206 14.813 8.216 o
4 -15 5 1.580 7.218 2.497 742.003 o
4 -15 6 2168.640 2138.520 36.871 0.589 o
4 -15 7 84.272 92.437 3.882 45.922 o
4 -15 8 188.522 204.184 6.157 18.577 o
4 -15 9 2297.060 2316.950 35.409 0.534 o
4 -15 10 83.021 78.773 3.334 49.929 o
4 -15 11 23.931 35.245 2.858 145.482 o
4 -15 12 365.545 387.477 8.074 8.426 o
4 -15 13 53.760 65.618 2.945 71.857 o
4 -15 14 890.935 903.348 24.376 2.280 o
4 -15 15 76.114 77.448 4.374 51.157 o
4 -15 16 125.340 126.645 6.699 28.655 o
4 -15 17 168.364 146.588 4.767 23.444 o
4 -15 18 199.470 195.582 8.460 17.102 o
4 -15 19 296.146 290.244 9.796 10.811 o
4 -15 20 39.156 37.736 3.462 102.506 o
4 -15 21 18.621 17.591 1.824 232.938 o
4 -15 22 19.304 16.561 1.758 232.858 o
4 -15 23 28.516 18.979 2.600 161.204 o
4 -14 0 52.358 58.940 4.060 71.824 o
4 -14 1 4992.450 5361.500 73.371 0.128 o
4 -14 2 2960.990 2864.370 40.152 0.355 o
4 -14 3 236.988 212.631 5.799 15.526 o
4 -14 4 993.941 1030.540 16.105 2.085 o
4 -14 5 0.222 7.017 2.879 746.029 o
4 -14 6 247.671 282.660 7.312 13.096 o
4 -14 7 2941.290 2999.450 51.181 0.337 o
4 -14 8 1720.660 1740.130 31.535 0.853 o
4 -14 9 425.808 475.369 10.103 6.644 o
4 -14 10 1842.320 1867.100 24.989 0.789 o
4 -14 11 811.699 881.739 14.481 2.750 o
4 -14 12 32.512 26.799 2.684 134.448 o
4 -14 13 749.244 736.982 13.863 3.235 o
4 -14 14 3.970 12.909 3.303 391.319 o
4 -14 15 699.134 699.661 14.500 3.504 o
4 -14 16 1072.720 1098.690 20.593 1.821 o
4 -14 17 684.131 662.290 13.575 3.694 o
4 -14 18 9.498 13.177 2.488 343.215 o
4 -14 19 34.021 41.354 2.930 112.203 o
4 -14 20 106.441 106.584 4.200 36.941 o
4 -14 21 0.412 3.485 1.997 1437.390 o
4 -14 22 512.394 474.851 25.644 4.350 o
4 -14 23 49.192 51.975 3.833 78.775 o
4 -14 24 42.476 46.782 3.142 92.901 o
4 -14 25 160.744 158.384 4.966 23.522 o
4 -13 0 53.014 78.401 4.179 63.768 o
4 -13 1 137.273 157.432 5.543 25.935 o
4 -13 2 10215.500 10634.800 124.021 0.034 o
4 -13 3 499.993 502.842 10.843 5.630 o
4 -13 4 138.526 126.456 5.006 28.282 o
4 -13 5 15.094 15.701 3.140 234.032 o
4 -13 6 100.233 120.550 4.443 36.481 o
4 -13 7 723.427 677.653 14.235 3.454 o
4 -13 8 1867.810 1873.140 32.156 0.753 o
4 -13 9 3041.080 3179.720 50.493 0.316 o
4 -13 10 180.663 196.801 6.703 19.163 o
4 -13 11 141.977 121.510 4.882 28.235 o
4 -13 12 18.864 14.685 2.962 215.206 o
4 -13 13 635.597 655.757 15.296 3.885 o
4 -13 14 185.645 178.272 5.601 19.999 o
4 -13 15 105.443 105.068 4.257 37.300 o
4 -13 16 1752.400 1828.260 37.519 0.790 o
4 -13 17 178.090 156.208 6.739 20.966 o
4 -13 18 1501.830 1588.020 39.008 0.971 o
4 -13 19 922.912 912.466 17.355 2.349 o
4 -13 20 86.278 84.226 3.920 46.620 o
4 -13 21 1725.110 1789.040 35.238 0.822 o
4 -13 22 28.103 32.496 3.080 134.689 o
4 -13 23 169.862 167.664 4.897 22.166 o
4 -13 24 111.040 122.783 4.689 33.623 o
4 -13 25 238.522 234.625 11.735 12.940 o
4 -13 26 164.738 113.015 8.207 23.189 o
4 -13 27 25.974 21.206 2.278 171.353 o
4 -12 0 1415.550 1449.530 21.230 1.204 o
4 -12 1 124.285 116.043 4.350 32.039 o
4 -12 2 2270.150 2251.260 30.891 0.558 o
4 -12 3 101.578 130.021 5.330 34.094 o
4 -12 4 133.168 137.500 5.660 27.725 o
4 -12 5 1580.610 1661.680 25.196 0.983 o
4 -12 6 567.166 597.036 13.297 4.564 o
4 -12 7 1070.330 1089.630 20.717 1.831 o
4 -12 8 2044.140 2124.420 36.303 0.630 o
4 -12 9 944.323 920.201 19.176 2.257 o
4 -12 10 2898.510 2989.870 43.618 0.352 o
4 -12 11 1392.060 1446.660 23.566 1.210 o
4 -12 12 124.993 143.247 4.787 29.237 o
4 -12 13 67.261 83.135 3.783 55.300 o
4 -12 14 365.507 398.009 8.464 8.286 o
4 -12 15 268.751 303.903 7.075 12.015 o
4 -12 16 2750.680 2745.220 42.896 0.391 o
4 -12 17 545.090 578.262 11.627 4.880 o
4 -12 18 125.501 142.054 5.569 28.589 o
4 -12 19 1302.340 1325.520 23.148 1.354 o
4 -12 20 223.140 281.185 7.476 14.084 o
4 -12 21 18.281 18.803 3.248 198.501 o
4 -12 22 37.694 40.898 6.760 76.525 o
4 -12 23 243.535 302.187 8.929 12.471 o
4 -12 24 265.383 287.395 11.062 11.412 o
4 -12 25 316.790 328.424 7.609 10.175 o
4 -12 26 9.940 16.590 2.144 325.693 o
4 -12 27 76.462 67.751 3.015 56.110 o
4 -12 28 138.438 114.964 6.042 28.246 o
4 -11 0 53.868 64.413 3.515 70.437 o
4 -11 1 613.257 643.569 10.152 4.257 o
4 -11 2 84.737 129.845 4.121 39.606 o
4 -11 3 379.549 436.966 9.057 7.659 o
4 -11 4 30.165 60.051 3.044 101.789 o
4 -11 5 218.618 241.658 5.512 15.806 o
4 -11 6 1.720 6.730 1.961 909.427 o
4 -11 7 1365.170 1432.640 20.929 1.258 o
4 -11 8 220.062 228.462 5.831 15.994 o
4 -11 9 4.267 5.708 2.236 665.001 o
4 -11 10 890.043 934.260 15.577 2.436 o
4 -11 11 49.038 55.800 3.245 79.582 o
4 -11 12 885.076 896.915 15.148 2.505 o
4 -11 13 13.978 15.431 2.570 265.119 o
4 -11 14 1818.880 1751.570 25.054 0.827 o
4 -11 15 301.745 307.260 8.636 10.667 o
4 -11 16 920.727 1015.360 18.326 2.219 o
4 -11 17 18.098 31.175 3.226 169.083 o
4 -11 18 250.014 284.086 7.462 12.943 o
4 -11 19 12.818 9.518 3.133 287.015 o
4 -11 20 10.497 12.428 3.056 301.921 o
4 -11 21 665.010 719.279 22.609 3.268 o
4 -11 22 492.676 521.527 13.440 5.423 o
4 -11 23 2766.340 3035.420 157.067 0.202 o
4 -11 24 939.881 922.645 34.035 1.927 o
4 -11 25 167.760 188.118 5.432 21.165 o
4 -11 26 181.868 191.149 5.953 19.634 o
4 -11 27 4.856 4.278 3.423 466.925 o
4 -11 28 271.781 301.208 7.716 11.828 o
4 -11 29 62.335 62.476 2.726 67.018 o
4 -10 0 33.534 37.920 4.768 100.437 o
4 -10 1 140.219 135.736 6.303 26.342 o
4 -10 2 10076.100 9595.600 129.851 0.037 o
4 -10 3 4.636 15.967 2.698 397.212 o
4 -10 4 1164.020 1241.530 18.207 1.609 o
4 -10 5 455.199 431.812 9.925 6.565 o
4 -10 6 593.193 580.388 10.617 4.574 o
4 -10 7 1234.290 1241.000 19.099 1.512 o
4 -10 8 3298.590 3252.570 43.549 0.291 o
4 -10 9 3191.370 3234.980 40.269 0.305 o
4 -10 10 4364.270 4615.480 59.793 0.167 o
4 -10 11 1279.270 1348.770 19.808 1.393 o
4 -10 12 261.199 245.895 6.327 13.521 o
4 -10 13 23.706 41.653 3.050 134.513 o
4 -10 14 796.170 726.456 14.172 3.069 o
4 -10 15 3222.420 3253.090 42.848 0.299 o
4 -10 16 694.227 665.705 12.201 3.683 o
4 -10 17 3017.250 2950.220 41.457 0.341 o
4 -10 18 17.469 26.120 2.855 191.392 o
4 -10 19 147.672 169.169 5.236 24.207 o
4 -10 20 1380.070 1402.760 23.736 1.239 o
4 -10 21 1252.850 1234.220 25.586 1.433 o
4 -10 22 13.087 16.066 3.129 250.046 o
4 -10 23 326.008 333.811 8.769 9.704 o
4 -10 24 77.761 80.598 4.957 48.506 o
4 -10 25 1045.730 1058.290 22.928 1.865 o
4 -10 26 0.416 -1.851 3.350 865.781 o
4 -10 27 635.789 694.033 35.242 2.758 o
4 -10 28 17.299 14.675 2.817 230.757 o
4 -10 29 10.097 9.785 1.725 409.761 o
4 -10 30 28.070 20.889 2.355 162.306 o
4 -9 0 15531.600 14818.300 297.618 0.015 o
4 -9 1 3335.040 3551.160 78.312 0.245 o
4 -9 2 1143.650 1200.390 33.117 1.481 o
4 -9 3 6518.340 6191.090 126.328 0.079 o
4 -9 4 637.259 648.143 18.465 3.743 o
4 -9 5 28.903 20.287 9.198 71.614 o
4 -9 6 308.266 401.240 13.146 8.593 o
4 -9 7 2000.890 2190.540 34.961 0.637 o
4 -9 8 2678.700 2481.720 43.432 0.424 o
4 -9 9 116.642 71.725 3.598 39.451 o
4 -9 10 2735.410 2544.310 33.829 0.421 o
4 -9 11 375.788 384.012 8.437 8.231 o
4 -9 12 162.373 164.446 4.805 23.117 o
4 -9 13 8457.050 8647.250 105.250 0.050 o
4 -9 14 3847.900 3667.950 45.230 0.227 o
4 -9 15 351.048 303.136 6.949 9.742 o
4 -9 16 140.160 152.693 4.630 26.492 o
4 -9 17 382.485 360.391 7.391 8.436 o
4 -9 18 5221.330 5091.210 63.427 0.127 o
4 -9 19 4.947 6.014 2.214 619.697 o
4 -9 20 27.218 28.059 2.574 149.765 o
4 -9 21 413.991 394.921 8.468 7.509 o
4 -9 22 452.494 417.275 8.693 6.791 o
4 -9 23 914.615 894.778 19.913 2.339 o
4 -9 24 1693.120 1715.320 30.894 0.876 o
4 -9 25 286.786 307.423 9.840 10.822 o
4 -9 26 84.265 98.420 5.280 42.492 o
4 -9 27 308.246 330.273 11.584 9.626 o
4 -9 28 20.020 23.974 2.480 190.528 o
4 -9 29 862.164 841.681 45.626 1.789 o
4 -9 30 151.852 175.214 19.145 13.190 o
4 -9 31 278.224 279.405 8.400 11.822 o
4 -8 0 4070.900 4270.370 126.870 0.153 o
4 -8 1 3783.070 3594.430 121.699 0.181 o
4 -8 2 2180.030 2248.510 52.498 0.529 o
4 -8 3 6538.820 7322.390 153.920 0.068 o
4 -8 4 2464.880 2009.960 60.036 0.473 o
4 -8 5 6658.470 6766.630 208.353 0.061 o
4 -8 6 1745.690 1889.720 59.696 0.670 o
4 -8 7 2213.230 2430.920 58.382 0.486 o
4 -8 8 125.705 166.826 11.718 20.970 o
4 -8 9 3782.460 3252.280 70.829 0.230 o
4 -8 10 1535.720 1332.310 27.091 1.117 o
4 -8 11 12.083 10.518 2.223 336.231 o
4 -8 12 85.696 101.374 3.684 44.186 o
4 -8 13 2750.620 2668.660 32.576 0.409 o
4 -8 14 2124.310 2207.770 29.204 0.610 o
4 -8 15 1658.860 1563.800 31.763 0.932 o
4 -8 16 2801.330 2652.710 38.817 0.395 o
4 -8 17 1560.470 1534.710 22.561 1.051 o
4 -8 18 3355.860 3308.430 43.875 0.282 o
4 -8 19 548.283 586.526 11.528 4.830 o
4 -8 20 1556.810 1671.880 25.371 0.994 o
4 -8 21 2351.170 2388.980 31.669 0.519 o
4 -8 22 1686.480 1749.400 26.259 0.891 o
4 -8 23 3426.110 3466.510 47.888 0.266 o
4 -8 24 671.935 668.727 13.098 3.755 o
4 -8 25 99.419 112.820 4.739 37.234 o
4 -8 26 4.971 5.600 2.439 591.899 o
4 -8 27 1602.340 1708.070 30.277 0.931 o
4 -8 28 698.332 724.815 14.522 3.451 o
4 -8 29 547.588 627.462 14.137 4.547 o
4 -8 30 357.740 394.675 11.524 8.052 o
4 -8 31 43.355 38.361 4.184 90.976 o
4 -8 32 0.939 -1.149 2.458 1382.080 o
4 -7 0 3670.750 3800.410 169.954 0.145 o
4 -7 1 1646.750 2077.190 77.304 0.580 o
4 -7 2 23523.900 25194.600 579.117 0.006 o
4 -7 3 72.465 87.398 8.400 40.334 o
4 -7 4 3143.930 3126.360 66.909 0.291 o
4 -7 5 337.393 352.296 19.619 7.233 o
4 -7 6 55.205 59.572 8.439 50.575 o
4 -7 7 26403.800 27685.700 514.266 0.005 o
4 -7 8 4336.680 4777.110 123.345 0.139 o
4 -7 9 1620.350 1942.760 58.357 0.710 o
4 -7 10 719.370 561.808 21.561 3.415 o
4 -7 11 32.651 24.067 5.344 107.088 o
4 -7 12 2800.040 2791.330 53.990 0.365 o
4 -7 13 716.977 728.490 14.588 3.362 o
4 -7 14 4.258 8.984 2.697 510.316 o
4 -7 15 10576.700 10353.600 138.742 0.033 o
4 -7 16 1385.770 1365.980 23.975 1.248 o
4 -7 17 461.477 507.370 13.889 5.740 o
4 -7 18 528.674 525.871 13.256 5.114 o
4 -7 19 966.983 985.844 15.274 2.199 o
4 -7 20 129.754 120.476 4.481 30.565 o
4 -7 21 645.458 647.472 12.386 3.976 o
4 -7 22 4003.640 4069.000 55.679 0.200 o
4 -7 23 33.823 41.124 2.984 112.417 o
4 -7 24 257.327 243.605 5.477 13.915 o
4 -7 25 462.818 490.127 10.848 6.070 o
4 -7 26 60.120 70.703 3.962 62.358 o
4 -7 27 618.047 598.245 11.819 4.302 o
4 -7 28 407.761 399.704 8.686 7.548 o
4 -7 29 451.137 455.686 9.014 6.542 o
4 -7 30 606.435 590.540 15.605 4.212 o
4 -7 31 168.781 176.196 6.600 20.986 o
4 -7 32 0.375 0.936 2.026 1920.990 o
4 -6 0 13596.900 14660.300 274.217 0.018 o
4 -6 1 10782.100 12742.800 238.368 0.026 o
4 -6 2 3609.300 3834.840 94.762 0.205 o
4 -6 3 19868.000 21533.900 397.527 0.008 o
4 -6 4 124.776 84.296 6.612 32.378 o
4 -6 5 4515.190 4807.610 115.948 0.136 o
4 -6 6 634.554 617.853 22.113 3.630 o
4 -6 7 4.204 9.657 6.254 195.702 o
4 -6 8 2865.860 2569.970 109.233 0.280 o
4 -6 9 3201.360 3481.140 76.427 0.260 o
4 -6 10 7681.200 8127.580 156.785 0.054 o
4 -6 11 555.407 446.594 17.494 4.895 o
4 -6 12 36.491 37.470 5.868 86.817 o
4 -6 13 162.301 146.864 7.908 22.024 o
4 -6 14 64.429 48.886 6.649 56.317 o
4 -6 15 2188.890 2139.450 50.200 0.547 o
4 -6 16 2606.340 2495.910 57.395 0.411 o
4 -6 17 420.230 375.689 13.299 7.016 o
4 -6 18 2399.570 2222.760 43.932 0.503 o
4 -6 19 238.455 251.156 9.606 13.400 o
4 -6 20 122.847 100.964 5.626 32.420 o
4 -6 21 72.310 50.736 3.799 61.462 o
4 -6 22 427.014 472.622 10.545 6.607 o
4 -6 23 142.251 119.686 4.733 28.441 o
4 -6 24 443.904 420.374 8.996 6.858 o
4 -6 25 105.108 97.437 4.084 38.545 o
4 -6 26 4.254 0.547 2.593 768.560 o
4 -6 27 2238.330 2331.480 33.060 0.552 o
4 -6 28 223.583 210.395 8.173 15.489 o
4 -6 29 422.663 417.820 8.823 7.181 o
4 -6 30 1116.090 1119.610 18.170 1.766 o
4 -6 31 2.211 2.122 1.865 1242.200 o
4 -6 32 25.595 24.889 2.145 166.735 o
4 -6 33 25.039 24.923 2.736 161.326 o
4 -5 0 2556.030 2940.170 95.365 0.316 o
4 -5 1 14805.000 14205.400 325.654 0.016 o
4 -5 2 2912.070 3065.780 100.128 0.271 o
4 -5 3 4733.480 4840.680 121.205 0.127 o
4 -5 4 25880.700 24560.300 555.056 0.005 o
4 -5 5 978.869 843.292 25.550 2.131 o
4 -5 6 5408.520 6341.490 125.892 0.095 o
4 -5 7 437.028 520.609 18.683 5.426 o
4 -5 8 2077.240 2251.370 61.931 0.523 o
4 -5 9 6117.440 6009.540 120.817 0.087 o
4 -5 10 357.683 366.721 17.092 7.345 o
4 -5 11 26.796 32.621 7.867 80.938 o
4 -5 12 415.167 457.302 32.298 4.221 o
4 -5 13 1462.490 1454.660 46.235 0.975 o
4 -5 14 85.099 80.840 12.540 28.714 o
4 -5 15 2454.420 2312.670 63.437 0.439 o
4 -5 16 1694.700 1546.950 39.477 0.873 o
4 -5 17 2406.570 2363.970 55.559 0.461 o
4 -5 18 20.138 19.329 5.699 133.445 o
4 -5 19 431.941 438.758 17.840 5.945 o
4 -5 20 42.611 37.976 4.681 88.675 o
4 -5 21 1650.940 1574.730 32.128 0.931 o
4 -5 22 58.407 63.434 4.642 63.515 o
4 -5 23 2.785 4.299 3.111 606.969 o
4 -5 24 28.620 41.738 5.980 92.842 o
4 -5 25 6.392 9.159 2.571 451.511 o
4 -5 26 2.781 1.895 3.171 661.108 o
4 -5 27 945.094 942.565 19.352 2.227 o
4 -5 28 3.536 6.395 2.915 558.712 o
4 -5 29 260.926 241.908 5.258 13.841 o
4 -5 30 119.409 124.478 3.774 32.642 o
4 -5 31 0.068 1.139 1.772 2516.720 o
4 -5 32 523.303 518.868 15.714 5.006 o
4 -5 33 150.049 151.181 7.354 23.443 o
4 -4 0 4985.110 5626.920 129.306 0.109 o
4 -4 1 131.245 227.551 11.002 18.901 o
4 -4 2 33727.200 33240.300 605.355 0.003 o
4 -4 3 886.753 1020.260 27.839 2.085 o
4 -4 4 15.273 28.686 5.364 140.780 o
4 -4 5 5431.880 5300.820 166.697 0.093 o
4 -4 6 761.795 752.069 22.687 2.872 o
4 -4 7 12013.200 12313.500 283.899 0.022 o
4 -4 8 265.344 265.689 20.420 8.777 o
4 -4 9 197.514 115.757 10.285 18.713 o
4 -4 10 8687.100 8798.800 206.943 0.041 o
4 -4 11 3665.920 4094.230 107.140 0.186 o
4 -4 12 8.817 10.582 4.374 256.991 o
4 -4 13 296.538 326.992 28.419 6.007 o
4 -4 14 1337.830 1284.740 65.110 0.902 o
4 -4 15 749.590 701.714 20.166 3.091 o
4 -4 16 1176.550 1215.400 25.544 1.532 o
4 -4 17 2810.080 2774.310 60.144 0.356 o
4 -4 18 561.267 644.327 17.986 4.180 o
4 -4 19 1845.380 1942.380 52.228 0.665 o
4 -4 20 1311.280 1412.640 38.969 1.158 o
4 -4 21 463.151 478.900 22.215 5.002 o
4 -4 22 3238.230 3221.890 69.356 0.275 o
4 -4 23 560.023 628.514 16.634 4.317 o
4 -4 24 488.061 520.027 14.624 5.376 o
4 -4 25 1593.670 1654.900 36.340 0.917 o
4 -4 26 82.190 70.331 5.633 47.176 o
4 -4 27 913.993 971.606 20.037 2.250 o
4 -4 28 907.246 926.240 18.860 2.341 o
4 -4 29 0.768 3.527 2.702 932.219 o
4 -4 30 16.543 24.785 2.801 201.670 o
4 -4 31 132.259 151.292 4.199 27.956 o
4 -4 32 194.720 181.991 7.927 18.092 o
4 -4 33 23.828 23.799 2.187 176.391 o
4 -3 0 10751.300 10978.400 205.399 0.029 o
4 -3 1 432.792 460.041 15.507 6.104 o
4 -3 2 161.071 141.851 8.579 21.847 o
4 -3 3 12432.200 12086.500 276.869 0.022 o
4 -3 4 6140.620 6281.810 217.788 0.067 o
4 -3 5 3741.930 4003.270 140.139 0.161 o
4 -3 6 8923.910 9197.770 213.487 0.039 o
4 -3 7 192.659 235.341 13.303 13.994 o
4 -3 8 28511.200 29480.600 663.122 0.004 o
4 -3 9 1626.780 1781.250 50.331 0.786 o
4 -3 10 825.816 968.236 31.622 2.153 o
4 -3 11 10849.000 10916.200 255.176 0.027 o
4 -3 12 351.097 304.586 19.217 7.452 o
4 -3 13 550.418 395.158 30.670 3.891 o
4 -3 14 715.792 742.344 44.856 2.104 o
4 -3 15 1241.100 1257.270 22.986 1.459 o
4 -3 16 103.029 85.165 5.914 38.015 o
4 -3 17 1269.890 1131.620 23.025 1.498 o
4 -3 18 1209.930 1254.220 33.094 1.382 o
4 -3 19 1620.620 1607.770 40.301 0.891 o
4 -3 20 3827.750 3778.930 63.693 0.215 o
4 -3 21 26.409 38.943 6.273 94.576 o
4 -3 22 2554.440 2594.560 58.371 0.409 o
4 -3 23 2966.770 2992.520 55.927 0.329 o
4 -3 24 22.107 19.621 4.535 150.525 o
4 -3 25 329.055 306.426 9.562 9.817 o
4 -3 26 192.811 216.778 7.742 17.198 o
4 -3 27 972.110 973.370 19.888 2.128 o
4 -3 28 859.361 844.039 18.753 2.569 o
4 -3 29 29.777 40.613 3.421 117.494 o
4 -3 30 24.561 31.270 3.460 142.022 o
4 -3 31 620.305 641.533 10.885 4.194 o
4 -3 32 27.950 26.272 2.718 148.656 o
4 -3 33 1.594 2.991 2.117 1140.410 o
4 -2 0 3323.980 3373.720 119.787 0.210 o
4 -2 1 1563.800 1289.380 53.836 0.900 o
4 -2 2 5692.940 5647.970 190.247 0.081 o
4 -2 3 411.333 525.544 28.469 4.490 o
4 -2 4 6261.080 5850.530 196.520 0.072 o
4 -2 5 2748.240 2741.550 99.499 0.299 o
4 -2 6 4467.290 4569.510 110.511 0.144 o
4 -2 7 0.609 6.371 4.330 421.723 o
4 -2 8 941.531 1027.420 31.875 1.890 o
4 -2 9 3882.910 3735.190 92.200 0.195 o
4 -2 10 631.691 677.676 23.616 3.431 o
4 -2 11 1715.030 1723.490 97.248 0.503 o
4 -2 12 1821.870 2318.640 94.670 0.447 o
4 -2 13 8.682 7.510 9.734 90.613 o
4 -2 14 40.008 18.997 9.431 62.624 o
4 -2 15 88.721 84.179 4.766 44.292 o
4 -2 16 363.405 392.148 12.487 7.837 o
4 -2 17 12.464 22.282 3.692 211.050 o
4 -2 18 284.246 282.360 9.842 11.250 o
4 -2 19 235.023 238.569 9.793 13.725 o
4 -2 20 239.789 233.907 10.150 13.498 o
4 -2 21 50.872 60.869 7.113 58.235 o
4 -2 22 145.239 130.978 9.362 23.184 o
4 -2 23 164.667 174.905 11.877 17.780 o
4 -2 24 2832.820 2805.870 64.665 0.345 o
4 -2 25 34.913 39.887 4.957 95.256 o
4 -2 26 1310.490 1367.620 36.453 1.202 o
4 -2 27 502.660 507.363 25.759 4.302 o
4 -2 28 208.315 222.516 10.132 15.123 o
4 -2 29 150.133 159.508 5.831 24.096 o
4 -2 30 51.883 52.558 2.953 79.477 o
4 -2 31 382.247 378.742 6.726 8.336 o
4 -2 32 93.784 86.323 2.996 44.886 o
4 -2 33 107.999 69.098 4.237 41.467 o
4 -1 0 1846.790 2116.140 113.328 0.391 o
4 -1 1 1244.980 1361.310 51.072 1.088 o
4 -1 2 3556.210 3762.810 130.851 0.180 o
4 -1 3 5817.770 6123.160 204.229 0.073 o
4 -1 4 1896.160 1618.990 63.631 0.645 o
4 -1 5 6826.240 6843.530 226.530 0.057 o
4 -1 6 784.551 708.820 23.389 2.842 o
4 -1 7 2330.430 2927.880 73.174 0.388 o
4 -1 8 39.270 88.683 7.409 55.683 o
4 -1 9 1673.840 1837.480 49.086 0.762 o
4 -1 10 2280.040 2194.210 80.151 0.433 o
4 -1 11 159.776 122.147 16.270 16.045 o
4 -1 12 1457.030 1390.420 63.555 0.841 o
4 -1 13 4466.110 3943.860 145.876 0.136 o
4 -1 14 325.436 265.361 24.249 6.918 o
4 -1 15 3199.870 3356.790 69.089 0.273 o
4 -1 16 2485.150 2613.440 57.519 0.421 o
4 -1 17 581.770 585.047 16.259 4.339 o
4 -1 18 520.655 447.069 12.903 5.548 o
4 -1 19 76.943 78.652 5.362 48.249 o
4 -1 20 109.827 125.051 7.694 29.975 o
4 -1 21 3.732 1.844 4.339 399.766 o
4 -1 22 664.658 691.383 21.587 3.373 o
4 -1 23 562.786 547.647 13.950 4.728 o
4 -1 24 696.500 730.938 25.993 2.980 o
4 -1 25 14.436 17.205 3.601 217.853 o
4 -1 26 2.261 6.594 3.119 574.076 o
4 -1 27 89.540 93.404 5.016 42.123 o
4 -1 28 161.487 161.746 5.981 22.694 o
4 -1 29 123.077 137.322 6.939 27.951 o
4 -1 30 722.923 715.325 13.361 3.403 o
4 -1 31 151.768 156.576 5.328 24.399 o
4 -1 32 344.966 298.703 12.092 9.077 o
4 0 0 4139.350 3961.750 110.664 0.166 o
4 0 1 8078.000 8161.510 267.742 0.041 o
4 0 2 2258.680 2459.800 90.720 0.387 o
4 0 3 18555.600 19487.600 618.608 0.008 o
4 0 4 486.100 567.206 29.720 3.877 o
4 0 5 1733.420 1678.300 85.385 0.563 o
4 0 6 336.473 248.041 11.287 9.988 o
4 0 7 160.811 143.889 8.394 21.925 o
4 0 8 5510.720 5829.240 194.954 0.081 o
4 0 9 257.094 337.012 20.798 8.215 o
4 0 10 16.775 19.503 5.271 152.655 o
4 0 11 8071.420 8059.920 209.921 0.047 o
4 0 12 3091.850 3159.710 119.184 0.230 o
4 0 13 521.604 679.751 38.776 2.879 o
4 0 14 66.973 36.177 6.289 59.913 o
4 0 15 747.646 832.882 28.881 2.567 o
4 0 16 365.001 354.236 18.709 7.038 o
4 0 17 3495.760 3567.400 108.573 0.207 o
4 0 18 4.786 11.643 5.071 248.259 o
4 0 19 3209.230 3093.310 59.470 0.294 o
4 0 20 115.487 119.344 6.119 31.509 o
4 0 21 33.269 31.117 4.664 107.501 o
4 0 22 4.243 2.787 3.947 430.229 o
4 0 23 226.143 224.480 7.456 15.267 o
4 0 24 202.583 224.110 7.458 16.528 o
4 0 25 294.558 306.433 9.467 10.705 o
4 0 26 376.240 436.430 11.326 7.456 o
4 0 27 52.634 65.739 3.534 70.830 o
4 0 28 82.045 68.913 3.405 52.388 o
4 0 29 143.492 139.197 5.275 26.503 o
4 0 30 66.839 64.181 3.493 61.517 o
4 0 31 602.498 626.064 22.569 3.731 o
4 0 32 2.793 0.643 2.090 1150.200 o
4 1 0 1988.920 2238.580 50.378 0.586 o
4 1 1 158.332 125.544 10.500 21.148 o
4 1 2 77.152 73.910 6.417 46.338 o
4 1 3 181.258 225.391 16.736 12.793 o
4 1 4 9788.050 9767.810 223.316 0.034 o
4 1 5 5092.470 5076.490 528.759 0.029 o
4 1 6 6104.970 6482.840 216.897 0.066 o
4 1 7 1173.060 1151.680 49.812 1.230 o
4 1 8 13.523 11.746 6.725 138.716 o
4 1 9 5122.680 4776.380 116.330 0.120 o
4 1 10 1866.190 1732.180 127.318 0.363 o
4 1 11 1715.420 1669.810 69.285 0.659 o
4 1 12 1101.220 1099.690 51.458 1.281 o
4 1 13 333.279 370.288 23.116 6.490 o
4 1 14 6.891 5.444 3.196 421.730 o
4 1 15 25.280 28.071 3.927 138.015 o
4 1 16 4807.360 4783.650 84.509 0.139 o
4 1 17 2400.910 2471.920 65.528 0.429 o
4 1 18 57.979 70.558 5.373 58.947 o
4 1 19 21.402 35.233 5.702 112.733 o
4 1 20 413.183 436.623 11.662 6.901 o
4 1 21 1545.390 1666.350 34.457 0.952 o
4 1 22 1248.550 1245.140 24.192 1.445 o
4 1 23 56.389 73.278 6.462 54.987 o
4 1 24 4070.420 4463.210 75.351 0.177 o
4 1 25 5.181 7.280 3.798 374.795 o
4 1 26 0.818 0.271 2.790 1116.310 o
4 1 27 368.642 373.970 9.120 8.369 o
4 1 28 50.718 49.151 3.180 81.534 o
4 1 29 35.979 32.154 4.626 102.462 o
4 1 30 213.326 217.515 8.108 15.861 o
4 1 31 12.750 8.453 2.008 353.114 o
4 2 0 21.017 15.588 4.770 156.327 o
4 2 1 235.161 227.818 11.174 13.412 o
4 2 2 12496.200 12452.500 234.549 0.022 o
4 2 3 4903.930 5147.820 103.828 0.125 o
4 2 4 1116.190 1142.280 29.757 1.597 o
4 2 5 2983.990 2846.810 84.270 0.297 o
4 2 6 724.207 677.363 21.751 3.163 o
4 2 7 9408.080 10031.400 262.319 0.033 o
4 2 8 60.145 81.340 8.267 45.359 o
4 2 9 2581.710 2728.550 59.870 0.392 o
4 2 10 7886.460 7807.380 224.992 0.047 o
4 2 11 1840.090 2057.240 45.252 0.678 o
4 2 12 60.274 54.000 4.939 64.247 o
4 2 13 5506.040 5117.830 156.379 0.096 o
4 2 14 25.810 20.825 3.375 156.534 o
4 2 15 7628.500 7329.380 280.698 0.044 o
4 2 16 55.038 59.740 4.457 67.823 o
4 2 17 3536.580 3574.730 107.273 0.205 o
4 2 18 3790.670 4088.960 73.062 0.202 o
4 2 19 1110.130 1110.620 37.865 1.495 o
4 2 20 436.642 467.581 12.577 6.331 o
4 2 21 1194.350 1212.540 23.616 1.534 o
4 2 22 464.669 476.343 10.604 6.143 o
4 2 23 262.441 287.722 7.791 12.350 o
4 2 24 11.166 10.276 2.702 327.451 o
4 2 25 463.554 451.559 12.149 6.161 o
4 2 26 2.755 5.453 2.701 669.585 o
4 2 27 9.908 8.073 2.591 376.818 o
4 2 28 89.509 102.297 6.427 38.355 o
4 2 29 22.652 20.311 4.835 141.846 o
4 2 30 389.988 319.246 41.040 3.645 o
4 3 0 213.432 170.053 6.991 17.698 o
4 3 1 144.237 198.449 11.742 18.433 o
4 3 2 2728.400 2718.310 57.969 0.374 o
4 3 3 26100.500 27567.100 681.906 0.005 o
4 3 4 1651.200 1750.790 58.482 0.732 o
4 3 5 16471.700 16994.300 374.543 0.012 o
4 3 6 2493.590 2354.170 241.450 0.131 o
4 3 7 1128.850 859.287 87.039 0.822 o
4 3 8 1664.560 1460.300 70.177 0.701 o
4 3 9 793.432 795.666 38.420 2.161 o
4 3 10 1629.400 1568.980 67.908 0.711 o
4 3 11 5273.980 4868.860 98.865 0.120 o
4 3 12 1802.140 1568.840 72.080 0.633 o
4 3 13 1051.380 952.643 19.967 1.993 o
4 3 14 1063.840 1002.040 27.977 1.796 o
4 3 15 387.447 403.032 11.145 7.561 o
4 3 16 59.567 46.277 4.233 70.411 o
4 3 17 538.900 560.081 12.907 4.922 o
4 3 18 1511.720 1547.280 36.682 0.994 o
4 3 19 386.473 424.857 11.035 7.425 o
4 3 20 1751.330 1850.780 28.138 0.825 o
4 3 21 129.540 160.813 6.258 26.142 o
4 3 22 37.203 45.570 3.792 97.156 o
4 3 23 68.890 71.304 4.146 56.626 o
4 3 24 0.031 1.266 2.521 1398.150 o
4 3 25 67.979 75.427 5.117 53.398 o
4 3 26 309.714 352.228 12.061 9.258 o
4 3 27 188.617 191.371 15.248 13.974 o
4 3 28 219.532 241.544 12.582 13.167 o
4 3 29 328.827 334.686 9.985 9.427 o
4 4 0 10167.100 10546.000 161.418 0.033 o
4 4 1 10237.300 10461.100 329.884 0.026 o
4 4 2 447.605 442.055 18.627 5.686 o
4 4 3 534.865 569.176 21.675 4.293 o
4 4 4 1.398 11.301 6.702 185.424 o
4 4 5 3560.670 3000.190 123.646 0.204 o
4 4 6 2504.300 2268.470 99.767 0.347 o
4 4 7 814.698 611.746 42.110 2.152 o
4 4 8 5194.230 4672.990 121.271 0.118 o
4 4 9 216.644 195.582 9.233 15.784 o
4 4 10 1.440 0.993 3.349 729.644 o
4 4 11 832.131 820.079 22.061 2.587 o
4 4 12 132.188 109.882 5.948 29.681 o
4 4 13 1226.060 1287.960 51.259 1.123 o
4 4 14 3583.600 3556.490 72.224 0.232 o
4 4 15 16.402 18.865 3.475 203.503 o
4 4 16 59.304 49.939 4.227 69.216 o
4 4 17 3028.310 3192.890 51.506 0.315 o
4 4 18 2351.000 2456.320 47.381 0.481 o
4 4 19 31.832 55.894 4.416 92.928 o
4 4 20 1640.990 1647.550 31.584 0.919 o
4 4 21 1026.120 1027.420 21.454 1.948 o
4 4 22 223.266 249.692 7.465 14.793 o
4 4 23 399.605 437.177 10.087 7.250 o
4 4 24 706.941 744.748 14.181 3.383 o
4 4 25 13.062 13.678 2.470 288.975 o
4 4 26 68.361 73.297 5.573 52.380 o
4 4 27 75.344 69.262 6.313 48.154 o
4 4 28 2.361 3.309 1.922 1072.920 o
4 5 0 651.790 611.026 34.245 2.882 o
4 5 1 75.526 65.529 9.172 40.300 o
4 5 2 3492.670 3233.940 129.709 0.195 o
4 5 3 1721.910 1620.640 55.351 0.749 o
4 5 4 8386.250 8197.440 454.462 0.026 o
4 5 5 1206.320 1123.970 24.221 1.568 o
4 5 6 1220.980 1173.560 25.102 1.509 o
4 5 7 265.986 233.710 10.873 12.299 o
4 5 8 14.621 39.400 4.901 136.267 o
4 5 9 46.627 46.614 6.997 65.714 o
4 5 10 1833.860 1780.140 35.379 0.774 o
4 5 11 2015.610 1924.180 40.202 0.660 o
4 5 12 1316.920 1309.210 24.632 1.335 o
4 5 13 2049.650 1942.140 55.641 0.591 o
4 5 14 670.449 641.031 19.445 3.558 o
4 5 15 146.879 109.270 9.337 24.166 o
4 5 16 1200.460 1140.080 25.673 1.548 o
4 5 17 1437.790 1579.670 25.770 1.106 o
4 5 18 3411.210 3595.300 53.498 0.258 o
4 5 19 1459.610 1521.650 29.096 1.090 o
4 5 20 10.232 19.821 3.419 247.427 o
4 5 21 542.945 604.501 14.580 4.630 o
4 5 22 376.800 391.882 13.531 7.478 o
4 5 23 2.728 10.218 3.247 465.558 o
4 5 24 259.666 267.767 7.666 12.838 o
4 5 25 265.776 273.636 8.662 12.266 o
4 5 26 171.313 122.156 6.679 23.247 o
4 5 27 288.344 305.452 12.986 10.045 o
4 6 0 2416.430 2281.560 32.283 0.515 o
4 6 1 769.865 764.519 14.933 3.075 o
4 6 2 4056.850 3894.000 52.877 0.203 o
4 6 3 3244.850 3037.850 43.980 0.307 o
4 6 4 1080.070 975.452 16.019 1.974 o
4 6 5 96.604 60.112 3.073 48.593 o
4 6 6 51.497 64.656 3.501 72.318 o
4 6 7 1290.840 1224.940 27.910 1.373 o
4 6 8 4399.820 4316.350 62.380 0.171 o
4 6 9 4603.990 4382.110 91.154 0.150 o
4 6 10 19.558 19.423 5.301 143.130 o
4 6 11 8279.440 8329.510 174.481 0.047 o
4 6 12 4642.780 4450.850 90.943 0.148 o
4 6 13 71.595 66.915 11.594 34.253 o
4 6 14 2166.260 2168.730 78.812 0.458 o
4 6 15 10.817 10.243 3.414 291.871 o
4 6 16 1775.060 1697.060 26.018 0.859 o
4 6 17 2135.550 2168.930 31.597 0.607 o
4 6 18 2122.000 2177.250 46.377 0.571 o
4 6 19 258.269 311.773 10.865 11.317 o
4 6 20 310.194 323.665 14.227 9.072 o
4 6 21 1026.310 1023.510 23.353 1.920 o
4 6 22 215.622 248.739 8.851 14.691 o
4 6 23 1098.430 1059.030 23.320 1.774 o
4 6 24 334.692 339.133 8.156 9.538 o
4 6 25 25.269 22.356 5.015 128.760 o
4 6 26 914.027 778.783 33.192 2.120 o
4 7 0 23.157 21.504 2.273 183.978 o
4 7 1 1922.470 1936.310 29.128 0.728 o
4 7 2 127.187 127.348 5.195 29.807 o
4 7 3 8405.560 8177.210 84.921 0.053 o
4 7 4 3844.110 3725.870 41.242 0.227 o
4 7 5 888.411 939.809 13.241 2.473 o
4 7 6 551.511 517.911 10.137 5.147 o
4 7 7 2264.790 2293.390 36.118 0.544 o
4 7 8 132.445 139.974 5.901 27.446 o
4 7 9 632.667 670.738 13.364 3.943 o
4 7 10 648.184 705.240 17.090 3.622 o
4 7 11 210.546 185.585 11.646 15.157 o
4 7 12 921.459 959.195 21.650 2.215 o
4 7 13 246.661 221.869 7.681 14.292 o
4 7 14 82.677 57.852 4.821 51.510 o
4 7 15 2321.680 2403.430 49.360 0.488 o
4 7 16 410.088 502.062 12.668 6.429 o
4 7 17 1107.590 1175.250 26.956 1.627 o
4 7 18 166.363 173.857 10.665 18.586 o
4 7 19 63.924 86.039 11.542 34.028 o
4 7 20 188.763 198.898 9.390 17.166 o
4 7 21 144.892 148.430 6.298 24.990 o
4 7 22 9.727 13.762 3.647 271.422 o
4 7 23 105.315 99.505 5.459 36.441 o
4 7 24 328.678 257.344 11.944 9.914 o
4 8 0 460.604 436.170 8.635 6.573 o
4 8 1 5651.530 5385.830 82.411 0.109 o
4 8 2 921.378 904.366 13.832 2.424 o
4 8 3 287.123 283.070 6.266 11.903 o
4 8 4 205.201 227.129 5.601 16.951 o
4 8 5 176.693 160.727 4.929 21.833 o
4 8 6 78.889 83.860 4.146 49.127 o
4 8 7 1202.490 1193.610 19.098 1.582 o
4 8 8 949.487 943.417 18.539 2.231 o
4 8 9 296.625 276.329 10.683 10.781 o
4 8 10 1156.160 1080.720 26.512 1.632 o
4 8 11 193.667 168.924 11.942 16.250 o
4 8 12 498.754 509.592 24.107 4.473 o
4 8 13 15.391 11.775 9.173 88.613 o
4 8 14 738.865 810.434 25.483 2.749 o
4 8 15 462.036 502.186 12.612 5.871 o
4 8 16 26.872 24.421 3.450 145.618 o
4 8 17 508.775 521.170 16.204 5.071 o
4 8 18 108.018 101.437 6.191 34.583 o
4 8 19 0.443 1.135 3.728 666.106 o
4 8 20 4.689 5.731 2.851 534.305 o
4 8 21 10.155 8.319 2.452 378.916 o
4 8 22 146.432 152.565 6.326 24.552 o
4 8 23 71.416 57.405 5.451 55.065 o
4 9 0 5291.010 5286.040 65.124 0.122 o
4 9 1 225.747 218.415 6.882 15.633 o
4 9 2 703.483 794.830 13.798 3.305 o
4 9 3 371.420 351.034 7.778 8.693 o
4 9 4 1.749 8.715 2.732 625.360 o
4 9 5 2784.230 2723.680 59.050 0.365 o
4 9 6 234.919 220.564 8.232 14.673 o
4 9 7 1322.130 1427.310 28.415 1.243 o
4 9 8 35.906 67.131 5.515 75.000 o
4 9 9 18.060 16.314 4.209 181.117 o
4 9 10 121.832 122.319 6.227 30.053 o
4 9 11 884.772 924.030 28.270 2.172 o
4 9 12 1112.200 1163.140 33.289 1.536 o
4 9 13 1021.440 1089.720 22.100 1.892 o
4 9 14 86.581 84.251 4.864 44.816 o
4 9 15 16.635 13.338 3.162 230.437 o
4 9 16 99.097 124.682 7.629 31.916 o
4 9 17 28.541 31.974 3.309 131.676 o
4 9 18 570.691 610.017 17.609 4.248 o
4 9 19 176.234 186.473 6.676 19.907 o
4 9 20 253.136 197.490 7.104 14.728 o
4 9 21 248.310 156.322 7.274 15.945 o
4 10 0 2.084 5.405 2.790 693.520 o
4 10 1 501.174 508.444 12.942 5.444 o
4 10 2 536.975 509.289 9.560 5.339 o
4 10 3 2152.570 2140.570 43.246 0.576 o
4 10 4 1249.700 1300.270 21.261 1.440 o
4 10 5 2055.710 2159.660 35.684 0.623 o
4 10 6 577.489 615.903 14.095 4.392 o
4 10 7 886.223 930.985 17.815 2.407 o
4 10 8 702.873 650.071 15.363 3.568 o
4 10 9 822.617 820.645 17.825 2.730 o
4 10 10 337.549 369.527 10.128 8.859 o
4 10 11 1503.510 1633.270 35.115 0.983 o
4 10 12 43.425 53.288 4.178 82.227 o
4 10 13 266.592 264.182 7.702 12.641 o
4 10 14 140.650 136.261 5.092 27.216 o
4 10 15 2.968 4.071 2.131 865.180 o
4 10 16 6.582 10.057 2.248 464.139 o
4 10 17 328.288 346.993 10.380 9.237 o
4 10 18 623.474 424.396 48.186 2.387 o
4 11 0 7.162 7.681 2.312 477.174 o
4 11 1 100.489 82.638 5.482 39.729 o
4 11 2 429.102 452.882 16.834 6.025 o
4 11 3 86.014 82.154 4.687 45.713 o
4 11 4 26.898 27.500 3.428 141.098 o
4 11 5 385.995 426.533 9.410 7.603 o
4 11 6 11.672 12.077 2.711 306.463 o
4 11 7 281.161 310.519 7.279 11.473 o
4 11 8 520.779 526.165 11.168 5.314 o
4 11 9 30.880 35.267 3.448 120.620 o
4 11 10 0.582 7.254 3.171 632.415 o
4 11 11 1080.780 1162.050 29.961 1.627 o
4 11 12 80.391 75.097 6.608 44.523 o
4 11 13 662.901 690.421 15.456 3.656 o
4 11 14 736.706 614.749 22.030 3.221 o
4 11 15 32.498 13.175 3.655 142.658 o
4 12 0 1369.110 1464.040 29.427 1.179 o
4 12 1 13.780 5.125 3.040 307.810 o
4 12 2 263.064 247.670 9.543 12.569 o
4 12 3 420.152 446.648 13.008 6.602 o
4 12 4 554.277 608.287 13.778 4.587 o
4 12 5 934.668 1027.150 27.005 2.009 o
4 12 6 44.400 46.227 3.463 89.062 o
4 12 7 20.088 33.561 5.049 127.186 o
4 12 8 516.630 570.212 14.849 4.925 o
4 12 9 285.683 311.751 11.502 10.404 o
4 12 10 53.233 53.713 3.453 75.753 o
4 12 11 247.597 255.816 8.359 13.341 o
4 12 12 26.589 22.995 2.361 163.946 o
4 13 0 259.972 289.252 7.367 12.507 o
4 13 1 1247.880 1295.580 24.108 1.419 o
4 13 2 1111.000 1115.550 24.109 1.703 o
4 13 3 139.552 156.563 7.264 24.357 o
4 13 4 43.182 41.779 4.642 86.020 o
4 13 5 63.763 62.517 4.449 61.111 o
4 13 6 0.504 1.381 2.340 1419.570 o
4 13 7 152.418 164.192 6.889 22.884 o
4 13 8 243.389 250.460 8.819 13.475 o
4 13 9 37.904 19.989 3.145 124.969 o
4 14 0 99.990 77.557 3.547 43.588 o
4 14 1 359.699 305.402 24.320 6.323 o
4 14 2 20.496 16.038 2.353 214.072 o
4 14 3 0.104 7.093 2.416 917.930 o
5 -18 2 2.177 6.242 2.473 739.864 o
5 -18 3 453.846 374.316 14.479 6.463 o
5 -18 4 45.197 34.004 3.880 93.452 o
5 -18 5 538.847 514.070 19.222 4.634 o
5 -18 6 4349.210 3787.610 120.656 0.156 o
5 -18 7 73.239 81.535 5.433 48.960 o
5 -18 8 120.035 114.841 6.308 30.885 o
5 -18 9 6.504 7.005 2.442 496.898 o
5 -17 0 22.910 20.718 3.743 161.180 o
5 -17 1 2.439 3.637 3.060 657.744 o
5 -17 2 138.576 133.936 6.530 26.472 o
5 -17 3 128.145 151.459 7.079 26.181 o
5 -17 4 5443.060 5297.680 546.419 0.027 o
5 -17 5 1.049 11.176 3.049 539.400 o
5 -17 6 63.225 69.709 3.964 60.752 o
5 -17 7 2637.140 2689.760 62.166 0.382 o
5 -17 8 865.139 891.082 22.695 2.396 o
5 -17 9 41.123 38.357 3.516 98.581 o
5 -17 10 227.577 241.083 8.013 14.613 o
5 -17 11 1.016 3.960 2.264 1078.960 o
5 -17 12 781.174 630.799 119.215 0.599 o
5 -17 13 4.035 6.977 3.414 452.220 o
5 -17 14 576.589 442.150 17.160 4.784 o
5 -17 15 50.865 43.929 4.013 80.242 o
5 -17 16 6.522 5.895 2.137 556.032 o
5 -16 0 1114.980 1202.590 27.563 1.592 o
5 -16 1 189.167 195.828 10.949 16.361 o
5 -16 2 202.303 228.487 7.997 16.204 o
5 -16 3 208.226 210.861 6.141 17.080 o
5 -16 4 52.225 64.297 4.312 68.802 o
5 -16 5 393.255 400.352 12.417 7.333 o
5 -16 6 16.263 12.806 2.687 251.617 o
5 -16 7 157.021 147.658 5.561 24.164 o
5 -16 8 287.990 276.849 6.720 11.895 o
5 -16 9 22.104 22.846 2.615 180.449 o
5 -16 10 410.518 397.626 9.836 7.405 o
5 -16 11 9.909 10.699 2.015 386.807 o
5 -16 12 13.196 14.185 2.534 281.826 o
5 -16 13 580.020 579.740 16.633 4.344 o
5 -16 14 97.278 114.717 4.494 37.838 o
5 -16 15 294.366 276.740 8.996 11.232 o
5 -16 16 114.389 102.547 5.354 34.257 o
5 -16 17 39.454 37.246 2.968 105.780 o
5 -16 18 124.236 124.018 5.022 30.733 o
5 -16 19 144.310 83.225 4.250 31.466 o
5 -15 0 42.363 53.095 3.535 86.990 o
5 -15 1 1836.410 2010.010 38.194 0.716 o
5 -15 2 40.668 41.500 3.209 98.865 o
5 -15 3 19.663 17.666 2.685 206.960 o
5 -15 4 133.614 132.599 6.226 27.506 o
5 -15 5 53.102 64.826 4.615 66.751 o
5 -15 6 379.189 409.707 8.085 7.987 o
5 -15 7 86.706 75.239 3.381 49.065 o
5 -15 8 67.031 65.258 3.418 61.259 o
5 -15 9 28.802 25.579 2.791 146.150 o
5 -15 10 45.185 39.650 3.945 89.390 o
5 -15 11 50.045 83.274 3.649 65.830 o
5 -15 12 5.492 1.459 2.443 680.514 o
5 -15 13 15.272 8.630 2.046 309.834 o
5 -15 14 39.435 34.657 2.778 109.355 o
5 -15 15 95.138 98.258 3.883 41.441 o
5 -15 16 87.911 80.404 3.159 47.899 o
5 -15 17 152.125 171.932 5.220 23.579 o
5 -15 18 3.645 3.464 1.578 991.100 o
5 -15 19 0.865 2.742 1.573 1787.690 o
5 -15 20 209.019 202.569 10.300 15.496 o
5 -15 21 208.919 147.390 5.175 19.560 o
5 -15 22 104.239 68.644 4.605 42.106 o
5 -14 0 833.736 898.486 17.801 2.587 o
5 -14 1 801.754 763.223 14.213 2.983 o
5 -14 2 3062.430 3236.210 49.181 0.311 o
5 -14 3 1030.640 1101.470 19.160 1.909 o
5 -14 4 387.289 484.747 10.150 7.083 o
5 -14 5 1163.590 1179.960 18.824 1.646 o
5 -14 6 4.139 9.646 2.463 534.077 o
5 -14 7 3204.020 3365.220 50.897 0.289 o
5 -14 8 1127.150 1208.970 20.883 1.654 o
5 -14 9 525.932 555.255 12.806 5.048 o
5 -14 10 71.585 81.623 4.601 51.702 o
5 -14 11 257.402 295.026 8.349 12.265 o
5 -14 12 728.356 735.342 13.779 3.325 o
5 -14 13 52.033 63.686 3.628 71.818 o
5 -14 14 1417.260 1512.260 28.596 1.128 o
5 -14 15 9.288 8.840 3.292 330.865 o
5 -14 16 100.457 85.931 6.120 38.211 o
5 -14 17 587.326 636.901 14.863 4.227 o
5 -14 18 278.843 279.774 7.105 12.075 o
5 -14 19 548.573 534.521 12.455 4.973 o
5 -14 20 663.837 659.032 17.511 3.637 o
5 -14 21 131.152 133.992 5.787 28.156 o
5 -14 22 355.507 362.409 12.469 8.217 o
5 -14 23 39.953 38.169 7.075 73.361 o
5 -14 24 20.768 13.031 1.608 238.050 o
5 -13 0 8097.710 8100.360 139.937 0.052 o
5 -13 1 1482.530 1451.330 24.942 1.126 o
5 -13 2 75.665 76.364 3.402 53.634 o
5 -13 3 485.866 467.495 9.064 6.071 o
5 -13 4 82.532 89.127 4.188 46.633 o
5 -13 5 6111.790 6159.480 77.171 0.093 o
5 -13 6 290.026 297.595 8.427 11.175 o
5 -13 7 2714.040 2852.360 47.931 0.382 o
5 -13 8 1535.460 1601.290 26.429 1.025 o
5 -13 9 2.443 7.380 2.824 605.004 o
5 -13 10 371.613 364.882 9.521 8.346 o
5 -13 11 1020.980 1016.890 66.740 1.113 o
5 -13 12 2282.980 2326.220 40.480 0.526 o
5 -13 13 2865.880 2852.510 48.572 0.359 o
5 -13 14 277.593 259.793 6.735 12.540 o
5 -13 15 1193.040 1132.950 21.709 1.607 o
5 -13 16 1219.160 1257.200 23.175 1.482 o
5 -13 17 12.602 14.364 2.857 274.353 o
5 -13 18 33.777 40.968 3.207 110.973 o
5 -13 19 723.295 718.793 18.608 3.215 o
5 -13 20 1926.250 1901.530 52.211 0.646 o
5 -13 21 98.549 98.427 4.679 39.371 o
5 -13 22 195.956 189.647 5.815 18.704 o
5 -13 23 974.906 905.156 30.855 1.959 o
5 -13 24 353.308 346.759 9.867 8.813 o
5 -13 25 157.902 141.944 5.303 24.549 o
5 -13 26 0.556 -0.169 2.489 1461.890 o
5 -12 0 3396.440 3381.950 54.098 0.268 o
5 -12 1 1071.940 1190.790 18.929 1.771 o
5 -12 2 723.681 739.490 12.333 3.378 o
5 -12 3 211.107 220.006 7.441 16.174 o
5 -12 4 354.592 329.740 7.190 9.329 o
5 -12 5 172.592 151.069 5.403 22.453 o
5 -12 6 517.061 540.892 9.596 5.373 o
5 -12 7 6.831 4.743 2.262 551.296 o
5 -12 8 2857.940 2893.340 38.592 0.369 o
5 -12 9 83.681 116.126 5.474 39.761 o
5 -12 10 465.126 520.077 12.337 5.774 o
5 -12 11 3699.480 3899.010 64.727 0.219 o
5 -12 12 29.404 35.753 2.916 128.657 o
5 -12 13 167.681 153.941 4.807 23.110 o
5 -12 14 883.788 900.064 16.333 2.482 o
5 -12 15 152.538 168.090 5.461 23.600 o
5 -12 16 101.104 124.817 7.773 31.334 o
5 -12 17 134.240 136.319 6.876 26.563 o
5 -12 18 1978.550 2089.710 42.159 0.638 o
5 -12 19 412.973 422.250 18.936 6.074 o
5 -12 20 541.325 619.618 15.152 4.555 o
5 -12 21 261.576 280.524 10.708 11.733 o
5 -12 22 1.729 1.968 2.314 1100.530 o
5 -12 23 2152.690 2300.770 38.331 0.567 o
5 -12 24 448.233 483.649 9.736 6.355 o
5 -12 25 347.216 325.222 8.272 9.398 o
5 -12 26 985.735 908.053 21.890 2.129 o
5 -12 27 41.126 27.322 2.631 114.111 o
5 -12 28 265.283 206.138 8.585 13.558 o
5 -11 0 593.403 640.308 11.991 4.317 o
5 -11 1 489.368 616.051 13.707 5.037 o
5 -11 2 31.406 31.258 2.767 130.678 o
5 -11 3 7.049 7.602 2.251 488.731 o
5 -11 4 4.930 11.464 2.579 460.007 o
5 -11 5 784.795 897.345 16.905 2.752 o
5 -11 6 966.312 975.511 17.863 2.172 o
5 -11 7 1875.770 1863.900 28.428 0.764 o
5 -11 8 43.163 48.811 3.896 86.598 o
5 -11 9 198.667 218.964 6.756 17.188 o
5 -11 10 2928.230 2959.870 37.655 0.355 o
5 -11 11 117.714 141.844 5.824 29.567 o
5 -11 12 2550.770 2713.010 42.662 0.427 o
5 -11 13 98.763 96.559 4.157 40.283 o
5 -11 14 34.316 27.641 3.009 125.687 o
5 -11 15 730.285 764.499 13.968 3.253 o
5 -11 16 21.463 14.160 3.616 184.784 o
5 -11 17 631.213 624.328 15.909 3.962 o
5 -11 18 174.025 180.315 7.204 20.040 o
5 -11 19 9.633 7.723 3.057 351.390 o
5 -11 20 517.072 512.949 13.901 5.216 o
5 -11 21 52.325 43.718 4.264 77.647 o
5 -11 22 312.701 286.784 9.085 10.560 o
5 -11 23 343.559 389.402 10.651 8.476 o
5 -11 24 24.197 22.613 3.271 160.935 o
5 -11 25 182.374 184.525 7.673 18.990 o
5 -11 26 707.366 726.895 15.678 3.369 o
5 -11 27 207.660 223.181 6.160 16.740 o
5 -11 28 890.799 832.355 19.719 2.478 o
5 -10 0 4622.700 4728.260 62.034 0.153 o
5 -10 1 561.663 581.140 12.099 4.722 o
5 -10 2 359.610 382.327 9.141 8.455 o
5 -10 3 2205.320 2121.980 49.531 0.547 o
5 -10 4 2004.960 1970.100 29.322 0.689 o
5 -10 5 5043.080 5074.840 81.239 0.129 o
5 -10 6 258.562 266.282 6.467 13.188 o
5 -10 7 3.996 9.475 2.282 569.571 o
5 -10 8 2245.550 2242.060 30.978 0.566 o
5 -10 9 3435.030 3525.190 49.999 0.261 o
5 -10 10 138.954 160.708 5.372 25.642 o
5 -10 11 31.945 40.939 3.441 112.607 o
5 -10 12 346.141 329.106 8.613 9.329 o
5 -10 13 581.922 568.747 10.571 4.696 o
5 -10 14 110.427 118.844 4.087 34.765 o
5 -10 15 500.021 556.260 11.384 5.351 o
5 -10 16 1011.380 1079.170 18.455 1.972 o
5 -10 17 147.944 174.227 5.765 23.577 o
5 -10 18 333.093 347.172 10.503 9.114 o
5 -10 19 96.401 109.021 5.139 37.898 o
5 -10 20 310.088 304.515 9.927 10.230 o
5 -10 21 217.375 198.472 6.885 16.636 o
5 -10 22 106.018 119.066 6.469 32.830 o
5 -10 23 866.372 889.076 17.725 2.513 o
5 -10 24 242.722 251.270 8.880 13.466 o
5 -10 25 3.172 -0.565 2.792 824.934 o
5 -10 26 27.934 30.363 4.149 125.106 o
5 -10 27 24.257 19.844 2.719 175.649 o
5 -10 28 202.409 228.367 5.970 16.961 o
5 -10 29 3.172 0.998 2.191 1009.180 o
5 -10 30 7.152 2.451 1.535 701.442 o
5 -9 0 7633.590 7552.280 242.359 0.047 o
5 -9 1 11410.900 11498.100 272.895 0.025 o
5 -9 2 15919.900 15417.900 296.362 0.014 o
5 -9 3 544.447 545.951 13.011 4.927 o
5 -9 4 2388.920 2383.670 55.244 0.463 o
5 -9 5 771.600 896.148 18.163 2.761 o
5 -9 6 1594.410 1433.550 30.874 1.016 o
5 -9 7 5582.040 5378.150 74.494 0.112 o
5 -9 8 8337.030 8104.460 101.801 0.053 o
5 -9 9 5491.910 5460.430 76.266 0.113 o
5 -9 10 3516.240 3494.200 45.313 0.258 o
5 -9 11 413.834 363.097 8.473 7.761 o
5 -9 12 1960.150 1847.340 24.201 0.744 o
5 -9 13 2063.770 1997.380 25.023 0.674 o
5 -9 14 86.005 60.743 3.580 52.120 o
5 -9 15 828.473 835.495 14.139 2.777 o
5 -9 16 10623.500 10279.300 149.109 0.033 o
5 -9 17 621.607 632.166 17.868 3.892 o
5 -9 18 138.256 110.889 4.765 29.718 o
5 -9 19 1030.490 994.554 17.331 2.032 o
5 -9 20 743.888 835.529 15.711 3.019 o
5 -9 21 2030.660 2059.380 32.695 0.655 o
5 -9 22 31.704 33.594 3.378 121.334 o
5 -9 23 33.417 34.661 3.299 117.194 o
5 -9 24 344.212 305.274 8.464 9.661 o
5 -9 25 871.091 984.668 22.314 2.283 o
5 -9 26 43.277 50.643 4.155 83.948 o
5 -9 27 62.444 65.476 4.579 60.590 o
5 -9 28 105.046 123.477 4.677 34.810 o
5 -9 29 99.654 100.877 4.784 38.609 o
5 -9 30 10.198 14.769 2.041 340.927 o
5 -8 0 1246.180 1270.490 40.200 1.253 o
5 -8 1 593.261 308.154 35.769 3.450 o
5 -8 2 5545.080 5287.010 108.048 0.107 o
5 -8 3 4101.700 4224.850 88.977 0.175 o
5 -8 4 2570.600 2645.590 60.018 0.400 o
5 -8 5 2067.270 2084.190 95.166 0.426 o
5 -8 6 1572.370 1801.710 49.436 0.810 o
5 -8 7 12703.900 12183.500 237.649 0.022 o
5 -8 8 4038.260 3776.090 50.202 0.209 o
5 -8 9 660.666 649.235 11.776 3.911 o
5 -8 10 1069.640 1013.040 16.424 1.953 o
5 -8 11 2967.790 2826.310 34.998 0.362 o
5 -8 12 4884.510 4524.870 50.376 0.150 o
5 -8 13 633.270 628.333 10.864 4.156 o
5 -8 14 7.982 13.978 2.603 356.010 o
5 -8 15 2047.770 1888.240 26.222 0.697 o
5 -8 16 265.382 255.168 6.950 13.031 o
5 -8 17 1115.980 1160.580 26.839 1.627 o
5 -8 18 189.784 180.998 7.744 18.553 o
5 -8 19 1.493 6.103 2.650 750.369 o
5 -8 20 215.657 228.941 6.616 15.976 o
5 -8 21 113.849 107.938 4.702 34.563 o
5 -8 22 229.115 288.590 7.631 13.632 o
5 -8 23 375.779 391.157 7.658 8.251 o
5 -8 24 17.064 20.153 3.043 206.971 o
5 -8 25 1143.990 1210.250 20.551 1.634 o
5 -8 26 73.381 91.471 4.626 48.824 o
5 -8 27 1524.280 1712.590 34.934 0.948 o
5 -8 28 2.850 3.703 2.275 851.405 o
5 -8 29 610.718 627.319 15.145 4.104 o
5 -8 30 259.246 234.045 6.184 13.882 o
5 -8 31 117.418 106.198 5.460 33.152 o
5 -7 0 2218.780 2639.660 66.888 0.443 o
5 -7 1 275.556 326.616 12.891 10.122 o
5 -7 2 87.439 143.477 8.390 31.128 o
5 -7 3 503.670 502.746 17.752 5.050 o
5 -7 4 421.366 584.389 31.991 3.923 o
5 -7 5 985.332 1188.910 41.051 1.534 o
5 -7 6 128.000 96.007 8.552 28.269 o
5 -7 7 47.309 55.570 7.671 58.845 o
5 -7 8 3578.780 3660.970 82.188 0.222 o
5 -7 9 3737.790 3857.640 85.935 0.204 o
5 -7 10 173.828 211.967 6.459 19.223 o
5 -7 11 2250.730 2111.480 29.085 0.587 o
5 -7 12 3.876 5.264 2.249 703.403 o
5 -7 13 1589.080 1504.910 23.541 1.037 o
5 -7 14 2672.390 2578.550 39.259 0.422 o
5 -7 15 4.766 4.890 2.654 582.686 o
5 -7 16 2683.330 2714.280 45.573 0.400 o
5 -7 17 571.391 542.359 18.855 4.365 o
5 -7 18 388.119 323.368 11.844 8.093 o
5 -7 19 567.188 577.909 20.177 4.193 o
5 -7 20 1336.270 1338.810 38.679 1.170 o
5 -7 21 21.860 31.374 3.279 153.269 o
5 -7 22 80.058 89.938 4.573 46.674 o
5 -7 23 2479.220 2601.690 40.598 0.454 o
5 -7 24 1.980 3.589 2.487 876.282 o
5 -7 25 2222.840 2250.740 20.648 0.589 o
5 -7 26 311.231 303.436 8.778 10.439 o
5 -7 27 272.560 290.494 8.145 11.883 o
5 -7 28 1082.370 1102.320 18.276 1.832 o
5 -7 29 55.465 58.907 3.268 72.210 o
5 -7 30 451.145 445.233 10.560 6.479 o
5 -7 31 4.216 2.042 1.395 1068.720 o
5 -6 0 4717.010 5149.670 90.452 0.134 o
5 -6 1 1092.580 975.243 23.280 1.850 o
5 -6 2 825.655 881.490 21.804 2.530 o
5 -6 3 2113.620 2090.500 42.256 0.597 o
5 -6 4 2.052 53.943 7.325 105.855 o
5 -6 5 493.789 603.151 22.593 4.359 o
5 -6 6 1105.300 1488.620 40.205 1.280 o
5 -6 7 286.243 282.228 18.853 8.726 o
5 -6 8 10576.600 11419.900 220.832 0.029 o
5 -6 9 2404.040 2528.490 60.442 0.435 o
5 -6 10 1195.310 1268.580 36.500 1.346 o
5 -6 11 18.453 9.043 5.299 165.094 o
5 -6 12 74.847 59.739 3.885 57.198 o
5 -6 13 24.873 27.670 3.671 143.587 o
5 -6 14 3290.760 3229.270 57.627 0.281 o
5 -6 15 1359.280 1352.070 27.979 1.247 o
5 -6 16 455.167 435.955 11.394 6.412 o
5 -6 17 649.722 619.140 14.409 3.946 o
5 -6 18 456.855 429.814 11.712 6.399 o
5 -6 19 2231.950 2161.460 36.170 0.570 o
5 -6 20 104.470 127.133 7.483 30.977 o
5 -6 21 1190.600 1179.430 32.735 1.446 o
5 -6 22 687.515 644.050 16.340 3.613 o
5 -6 23 181.630 189.556 8.373 18.481 o
5 -6 24 6.808 9.120 3.097 390.194 o
5 -6 25 195.948 230.830 6.157 17.214 o
5 -6 26 20.643 26.187 3.200 169.336 o
5 -6 27 9.684 18.620 2.787 286.486 o
5 -6 28 25.291 27.152 3.223 149.555 o
5 -6 29 927.612 870.390 16.682 2.402 o
5 -6 30 428.092 437.794 8.197 7.018 o
5 -6 31 121.806 127.507 4.282 31.504 o
5 -6 32 488.217 435.121 15.795 5.649 o
5 -5 0 523.633 519.374 14.633 5.083 o
5 -5 1 14131.000 14377.300 233.482 0.018 o
5 -5 2 6017.130 6299.000 107.919 0.088 o
5 -5 3 13937.700 13532.200 256.711 0.018 o
5 -5 4 2159.830 2136.280 62.278 0.517 o
5 -5 5 1167.770 1405.460 45.611 1.194 o
5 -5 6 5840.300 5919.400 148.546 0.086 o
5 -5 7 2607.020 2607.650 60.383 0.396 o
5 -5 8 8727.610 8886.520 177.467 0.043 o
5 -5 9 10131.300 10118.200 197.417 0.033 o
5 -5 10 2132.830 2152.020 66.549 0.507 o
5 -5 11 7412.220 7288.900 146.398 0.060 o
5 -5 12 1691.950 1693.690 42.797 0.820 o
5 -5 13 110.027 136.884 6.924 29.979 o
5 -5 14 1512.500 1639.750 38.034 0.956 o
5 -5 15 244.631 269.751 11.233 12.293 o
5 -5 16 5288.570 5183.700 103.114 0.115 o
5 -5 17 1822.200 1808.640 38.252 0.761 o
5 -5 18 0.654 1.787 4.479 458.770 o
5 -5 19 1021.180 1005.960 23.546 1.940 o
5 -5 20 1812.920 1839.490 38.682 0.757 o
5 -5 21 785.968 771.424 24.483 2.706 o
5 -5 22 963.866 949.553 24.520 2.079 o
5 -5 23 704.255 673.923 28.324 2.938 o
5 -5 24 2274.790 2212.840 46.082 0.528 o
5 -5 25 1933.510 2040.240 42.610 0.659 o
5 -5 26 37.048 34.959 3.313 109.654 o
5 -5 27 256.248 281.730 7.344 12.783 o
5 -5 28 20.894 21.040 2.443 194.448 o
5 -5 29 319.234 308.731 6.946 10.466 o
5 -5 30 330.824 299.610 7.242 10.240 o
5 -5 31 146.816 123.675 5.266 27.104 o
5 -5 32 5.168 5.027 1.523 756.195 o
5 -4 0 250.731 246.428 12.141 12.168 o
5 -4 1 14451.400 14737.800 238.771 0.017 o
5 -4 2 5567.750 4714.420 94.186 0.116 o
5 -4 3 1684.970 1516.110 47.042 0.839 o
5 -4 4 6215.910 5476.690 135.783 0.087 o
5 -4 5 903.842 1038.690 36.307 1.837 o
5 -4 6 516.493 503.058 25.866 4.228 o
5 -4 7 61.218 111.150 12.092 30.972 o
5 -4 8 8423.740 8715.670 170.023 0.046 o
5 -4 9 14281.700 14972.200 381.999 0.015 o
5 -4 10 6009.830 6323.580 154.028 0.080 o
5 -4 11 1052.210 1135.190 93.428 0.736 o
5 -4 12 2151.620 1935.090 61.572 0.544 o
5 -4 13 16.443 27.075 5.076 145.679 o
5 -4 14 1992.260 1949.010 50.140 0.627 o
5 -4 15 2312.510 2425.250 52.803 0.480 o
5 -4 16 1076.450 1108.930 28.688 1.688 o
5 -4 17 503.372 480.726 16.556 5.246 o
5 -4 18 37.017 46.292 5.975 80.627 o
5 -4 19 4.037 4.980 4.449 349.211 o
5 -4 20 230.298 256.250 11.278 13.019 o
5 -4 21 2.054 5.053 4.858 338.162 o
5 -4 22 384.557 367.762 19.502 6.585 o
5 -4 23 614.418 630.880 26.143 3.450 o
5 -4 24 6.967 10.689 5.004 237.607 o
5 -4 25 27.828 29.772 5.415 109.711 o
5 -4 26 31.492 30.034 4.577 112.726 o
5 -4 27 48.373 36.020 3.594 89.753 o
5 -4 28 62.645 61.297 5.558 58.250 o
5 -4 29 275.576 266.967 6.342 12.563 o
5 -4 30 5.059 4.968 2.129 658.489 o
5 -4 31 60.697 60.675 3.127 67.838 o
5 -4 32 225.573 189.053 8.312 15.884 o
5 -3 0 741.214 1116.400 51.916 1.598 o
5 -3 1 6302.550 6539.410 202.707 0.067 o
5 -3 2 102.929 91.335 9.763 30.567 o
5 -3 3 17.179 12.690 5.812 149.389 o
5 -3 4 477.543 568.558 29.283 3.952 o
5 -3 5 802.699 752.817 28.850 2.530 o
5 -3 6 65.922 100.028 9.364 37.840 o
5 -3 7 2819.580 2911.040 77.202 0.321 o
5 -3 8 444.753 441.248 19.739 5.582 o
5 -3 9 2211.890 1980.010 72.012 0.490 o
5 -3 10 1806.500 1635.020 48.451 0.753 o
5 -3 11 463.148 445.272 19.882 5.391 o
5 -3 12 2888.030 2832.500 114.694 0.260 o
5 -3 13 4300.090 4352.970 143.042 0.136 o
5 -3 14 1905.520 1761.740 34.357 0.752 o
5 -3 15 1099.560 992.099 22.299 1.840 o
5 -3 16 7.282 2.535 3.587 403.669 o
5 -3 17 99.577 118.846 6.933 33.429 o
5 -3 18 1288.780 1290.960 26.236 1.358 o
5 -3 19 525.337 560.390 15.142 4.876 o
5 -3 20 797.464 806.894 18.026 2.823 o
5 -3 21 1102.580 1144.630 32.544 1.570 o
5 -3 22 844.591 834.015 28.321 2.352 o
5 -3 23 233.321 272.813 16.875 10.562 o
5 -3 24 196.250 228.849 11.420 14.929 o
5 -3 25 60.424 62.592 4.980 61.278 o
5 -3 26 1102.850 1118.870 32.968 1.579 o
5 -3 27 6.260 13.291 3.090 359.628 o
5 -3 28 438.018 439.647 9.265 6.787 o
5 -3 29 2700.150 2820.010 42.002 0.394 o
5 -3 30 35.075 42.809 2.053 114.169 o
5 -3 31 436.471 455.435 13.359 6.322 o
5 -3 32 198.958 177.354 7.726 18.066 o
5 -2 0 577.203 623.270 34.342 3.081 o
5 -2 1 114.775 240.776 20.155 12.679 o
5 -2 2 9839.170 10625.200 348.792 0.026 o
5 -2 3 9961.230 11349.400 370.732 0.024 o
5 -2 4 246.078 368.881 25.128 7.028 o
5 -2 5 167.575 199.540 17.698 13.149 o
5 -2 6 73.942 86.895 8.209 40.508 o
5 -2 7 747.841 658.582 24.450 2.998 o
5 -2 8 650.083 435.637 25.058 3.790 o
5 -2 9 103.097 213.460 12.758 19.879 o
5 -2 10 218.087 155.649 10.907 15.917 o
5 -2 11 2172.530 1895.820 73.819 0.500 o
5 -2 12 8.242 3.226 8.646 114.810 o
5 -2 13 2579.060 2527.160 68.200 0.391 o
5 -2 14 1009.720 838.573 18.220 2.220 o
5 -2 15 2805.350 2783.180 50.908 0.370 o
5 -2 16 5471.870 5458.170 92.971 0.110 o
5 -2 17 78.565 92.212 6.511 42.619 o
5 -2 18 3652.100 3703.560 66.423 0.227 o
5 -2 19 709.003 690.417 21.797 3.193 o
5 -2 20 5872.530 5785.960 99.120 0.097 o
5 -2 21 2041.110 1990.110 40.330 0.640 o
5 -2 22 983.929 1040.950 26.850 1.914 o
5 -2 23 130.280 120.561 8.994 25.800 o
5 -2 24 16.425 12.726 4.958 175.795 o
5 -2 25 131.157 150.985 7.473 25.465 o
5 -2 26 86.710 100.099 6.009 40.166 o
5 -2 27 1342.350 1373.680 46.728 1.069 o
5 -2 28 14.664 15.542 3.347 230.963 o
5 -2 29 53.393 61.667 3.277 72.761 o
5 -2 30 182.146 185.791 5.956 19.820 o
5 -2 31 40.574 34.782 2.207 110.480 o
5 -1 0 1530.030 1506.400 81.968 0.654 o
5 -1 1 1637.220 1587.750 47.556 0.841 o
5 -1 2 21504.900 20854.400 902.143 0.005 o
5 -1 3 1714.620 1607.420 66.999 0.683 o
5 -1 4 3023.440 2821.140 105.482 0.264 o
5 -1 5 5968.790 7718.900 257.825 0.055 o
5 -1 6 2048.000 2319.260 61.525 0.524 o
5 -1 7 6067.140 6463.270 258.385 0.059 o
5 -1 8 185.812 181.028 11.192 16.812 o
5 -1 9 214.638 153.904 15.377 13.620 o
5 -1 10 512.259 495.368 28.321 4.048 o
5 -1 11 711.297 770.293 28.284 2.774 o
5 -1 12 786.556 742.245 46.740 1.927 o
5 -1 13 3671.330 3618.150 72.198 0.224 o
5 -1 14 1212.930 1127.930 31.125 1.471 o
5 -1 15 403.247 436.861 12.874 6.890 o
5 -1 16 8490.610 8227.540 135.967 0.049 o
5 -1 17 5729.230 5459.140 103.520 0.102 o
5 -1 18 254.329 256.265 12.310 11.837 o
5 -1 19 73.871 82.867 6.180 46.538 o
5 -1 20 509.538 500.415 16.157 5.151 o
5 -1 21 47.994 51.120 5.513 71.571 o
5 -1 22 17.048 24.971 4.220 166.109 o
5 -1 23 0.004 3.303 4.275 494.900 o
5 -1 24 8.702 14.849 3.674 275.216 o
5 -1 25 742.249 752.509 27.255 2.754 o
5 -1 26 51.246 44.213 4.272 78.406 o
5 -1 27 29.316 34.135 3.221 127.885 o
5 -1 28 26.455 22.445 2.330 165.994 o
5 -1 29 150.173 168.984 5.771 23.615 o
5 -1 30 23.469 15.572 2.835 187.935 o
5 -1 31 236.848 196.146 5.067 16.170 o
5 0 0 15542.900 17269.100 434.217 0.012 o
5 0 1 4749.140 5201.190 129.625 0.119 o
5 0 2 27530.500 30986.200 1368.380 0.003 o
5 0 3 26793.400 30123.300 668.427 0.004 o
5 0 4 160.008 130.872 15.229 16.669 o
5 0 5 12165.400 11802.900 516.829 0.016 o
5 0 6 309.885 208.411 16.845 9.566 o
5 0 7 55.411 25.918 8.532 57.800 o
5 0 8 673.622 699.096 44.320 2.235 o
5 0 9 1014.310 1156.780 51.950 1.321 o
5 0 10 11877.200 11695.400 271.099 0.023 o
5 0 11 277.117 382.078 28.189 5.983 o
5 0 12 346.825 362.328 12.933 8.290 o
5 0 13 5604.290 5491.810 108.740 0.103 o
5 0 14 346.378 360.166 11.409 8.575 o
5 0 15 2147.150 2079.040 51.616 0.561 o
5 0 16 4099.670 3684.500 88.291 0.188 o
5 0 17 1023.910 1050.830 27.972 1.820 o
5 0 18 1314.050 1268.390 39.872 1.202 o
5 0 19 1712.430 1715.050 36.785 0.838 o
5 0 20 23.142 19.427 3.767 162.335 o
5 0 21 29.025 29.742 3.665 129.171 o
5 0 22 373.560 376.004 9.433 8.223 o
5 0 23 59.629 75.553 5.139 57.484 o
5 0 24 349.832 338.806 9.802 8.971 o
5 0 25 156.009 163.992 6.049 23.091 o
5 0 26 1.510 1.966 2.392 1095.250 o
5 0 27 4.460 3.688 2.128 745.939 o
5 0 28 91.299 84.613 7.117 38.790 o
5 0 30 5.796 3.729 2.519 583.926 o
5 1 0 12.709 9.705 4.761 211.075 o
5 1 1 3801.740 3700.390 78.145 0.210 o
5 1 2 905.138 824.301 27.805 2.245 o
5 1 3 10980.800 11792.600 270.094 0.025 o
5 1 4 6860.120 7430.590 181.051 0.061 o
5 1 5 48.023 25.381 4.033 94.438 o
5 1 6 4403.760 4317.090 85.454 0.162 o
5 1 7 2810.640 2850.150 59.834 0.352 o
5 1 8 10761.700 10802.600 251.774 0.028 o
5 1 9 73.622 73.832 8.876 40.546 o
5 1 10 3576.410 3697.770 95.248 0.210 o
5 1 11 1244.580 1215.800 45.243 1.213 o
5 1 12 382.034 364.960 11.033 7.964 o
5 1 13 651.080 660.259 20.299 3.559 o
5 1 14 3049.220 3089.600 107.105 0.250 o
5 1 15 1086.470 1083.170 35.873 1.572 o
5 1 16 1485.600 1492.280 55.341 0.876 o
5 1 17 144.732 156.852 6.653 24.255 o
5 1 18 201.138 226.254 8.219 16.236 o
5 1 19 574.889 588.902 14.782 4.457 o
5 1 20 430.958 464.569 13.187 6.351 o
5 1 21 66.953 71.607 6.886 49.214 o
5 1 22 168.635 155.494 6.921 21.726 o
5 1 23 159.970 175.473 6.179 22.058 o
5 1 24 0.370 0.752 2.217 1705.820 o
5 1 25 269.371 285.747 6.756 12.368 o
5 1 26 39.759 42.492 3.221 99.416 o
5 1 27 68.266 77.971 5.222 52.385 o
5 1 28 52.491 51.219 3.106 78.968 o
5 1 29 50.197 51.705 3.419 79.756 o
5 1 30 0.548 -1.077 1.340 3951.320 o
5 2 0 519.027 599.925 14.225 4.839 o
5 2 1 195.147 234.246 8.690 16.141 o
5 2 2 6114.770 6212.620 105.772 0.088 o
5 2 3 80.284 93.106 5.704 43.734 o
5 2 4 7.121 11.487 3.255 347.552 o
5 2 5 510.050 642.440 21.518 4.237 o
5 2 6 508.166 590.631 17.469 4.720 o
5 2 7 3110.220 3438.500 71.127 0.275 o
5 2 8 42.516 54.860 6.641 67.821 o
5 2 9 14.127 8.420 5.016 196.309 o
5 2 10 1643.420 1602.140 32.642 0.925 o
5 2 11 0.956 3.629 2.590 953.205 o
5 2 12 793.753 775.938 26.155 2.620 o
5 2 13 886.241 857.711 27.879 2.248 o
5 2 14 5866.930 5669.030 142.358 0.089 o
5 2 15 42.903 42.607 4.162 89.016 o
5 2 16 346.547 315.980 9.146 9.382 o
5 2 17 2143.220 1966.620 35.491 0.626 o
5 2 18 2502.970 2478.370 41.575 0.459 o
5 2 19 671.429 632.657 14.123 3.810 o
5 2 20 208.288 227.379 6.910 16.322 o
5 2 21 48.677 44.554 3.478 84.916 o
5 2 22 629.144 640.907 12.386 4.085 o
5 2 23 150.628 166.099 5.604 23.826 o
5 2 24 160.292 159.479 7.065 22.223 o
5 2 25 71.082 65.398 4.649 55.657 o
5 2 26 16.610 14.463 2.987 231.839 o
5 2 27 444.108 448.465 13.990 6.210 o
5 2 28 346.591 279.964 14.719 8.684 o
5 2 29 18.070 17.535 2.593 220.316 o
5 3 0 902.845 903.848 17.489 2.406 o
5 3 1 1024.530 1076.690 22.554 1.890 o
5 3 2 1416.060 1498.630 35.156 1.084 o
5 3 3 3799.520 3894.290 78.290 0.204 o
5 3 4 5504.490 5598.570 123.945 0.100 o
5 3 5 163.327 215.430 9.041 18.458 o
5 3 6 2214.070 2331.590 66.537 0.472 o
5 3 7 606.652 574.867 19.648 4.019 o
5 3 8 2480.790 2300.740 185.141 0.190 o
5 3 9 434.040 367.821 11.796 7.066 o
5 3 10 5568.320 4820.520 92.725 0.115 o
5 3 11 3981.100 3795.770 74.992 0.199 o
5 3 12 1373.030 1290.640 25.405 1.284 o
5 3 13 459.022 512.419 11.079 5.974 o
5 3 14 2375.200 2185.420 37.336 0.527 o
5 3 15 1236.520 1176.110 22.720 1.514 o
5 3 16 1815.530 1715.330 28.831 0.824 o
5 3 17 613.581 647.077 14.098 4.082 o
5 3 18 363.063 366.418 10.286 8.383 o
5 3 19 494.405 459.166 11.688 5.837 o
5 3 20 454.601 456.285 13.949 6.060 o
5 3 21 129.444 132.925 5.647 28.612 o
5 3 22 1243.760 1352.540 23.396 1.399 o
5 3 23 1056.080 1069.950 18.992 1.894 o
5 3 24 79.746 88.707 4.451 47.256 o
5 3 25 289.647 302.911 9.871 10.799 o
5 3 26 19.816 17.429 3.483 188.063 o
5 3 27 21.496 17.108 2.218 206.703 o
5 4 0 571.971 554.234 14.584 4.603 o
5 4 1 1791.250 1499.950 40.098 0.834 o
5 4 2 778.506 925.049 26.443 2.458 o
5 4 3 10881.900 10305.600 512.260 0.018 o
5 4 4 7822.870 7457.920 342.425 0.037 o
5 4 5 15.313 23.515 10.162 71.409 o
5 4 6 8891.210 8000.980 209.825 0.042 o
5 4 7 249.881 208.933 11.290 13.166 o
5 4 8 543.368 530.930 19.111 4.558 o
5 4 9 138.410 98.321 10.910 23.843 o
5 4 10 0.908 4.248 3.540 604.122 o
5 4 11 9137.620 8690.410 173.952 0.042 o
5 4 12 3029.130 2894.900 47.532 0.337 o
5 4 13 3520.020 3370.020 54.158 0.258 o
5 4 14 674.724 662.227 15.400 3.669 o
5 4 15 268.575 278.627 9.913 11.765 o
5 4 16 2227.230 2168.310 42.372 0.555 o
5 4 17 601.015 553.662 15.568 4.358 o
5 4 18 0.538 2.064 4.250 503.212 o
5 4 19 2751.410 2952.390 51.444 0.365 o
5 4 20 424.782 455.766 10.508 6.744 o
5 4 21 43.946 41.532 3.483 92.550 o
5 4 22 766.687 788.865 14.656 3.050 o
5 4 23 161.027 169.884 5.143 22.804 o
5 4 24 120.442 127.129 9.505 25.977 o
5 4 25 3.950 7.346 2.237 634.406 o
5 4 26 88.972 78.523 4.334 45.961 o
5 4 27 35.011 20.250 3.007 133.328 o
5 5 0 1388.020 1378.190 22.203 1.253 o
5 5 1 693.629 756.005 17.323 3.306 o
5 5 2 551.611 611.188 11.256 4.729 o
5 5 3 38.919 43.988 3.741 96.172 o
5 5 4 3033.890 2833.230 54.448 0.332 o
5 5 5 122.854 98.291 4.402 34.003 o
5 5 6 2471.700 2431.640 34.594 0.482 o
5 5 7 2355.780 2156.460 49.625 0.507 o
5 5 8 1031.730 953.871 28.738 1.870 o
5 5 9 327.373 317.586 14.410 8.759 o
5 5 10 1780.710 1813.930 48.711 0.727 o
5 5 11 888.719 988.876 30.336 2.050 o
5 5 12 6352.140 6213.240 119.149 0.082 o
5 5 13 189.387 179.013 6.434 19.303 o
5 5 14 1.757 6.598 2.879 653.848 o
5 5 15 118.537 119.468 5.957 31.149 o
5 5 16 600.645 594.843 18.134 4.089 o
5 5 17 998.694 1040.160 20.992 1.993 o
5 5 18 40.691 39.734 4.087 94.268 o
5 5 19 183.450 191.211 8.149 18.423 o
5 5 20 248.297 256.355 8.041 13.394 o
5 5 21 42.906 51.928 4.782 79.987 o
5 5 22 139.093 173.024 7.038 23.693 o
5 5 23 406.532 471.689 17.000 6.140 o
5 5 24 82.494 71.469 6.252 45.327 o
5 5 25 428.408 397.777 13.471 6.747 o
5 5 26 30.359 31.737 3.032 130.206 o
5 6 0 32.865 46.475 2.724 110.933 o
5 6 1 2903.970 2845.390 32.437 0.372 o
5 6 2 280.234 291.118 6.785 11.903 o
5 6 3 3512.560 3525.080 41.294 0.260 o
5 6 4 834.672 827.840 13.435 2.784 o
5 6 5 247.323 211.363 5.813 15.034 o
5 6 6 821.453 756.371 13.384 2.946 o
5 6 7 19.852 16.218 3.378 193.699 o
5 6 8 142.390 149.939 6.748 24.838 o
5 6 9 95.375 96.551 5.545 39.132 o
5 6 10 2149.380 2336.850 48.327 0.538 o
5 6 11 17.067 36.726 4.467 140.709 o
5 6 12 4.091 8.695 3.178 456.439 o
5 6 13 423.735 377.774 9.527 7.389 o
5 6 14 215.951 238.944 6.417 15.757 o
5 6 15 615.688 736.870 14.377 3.818 o
5 6 16 271.463 308.062 10.671 11.041 o
5 6 17 160.319 133.557 8.538 22.336 o
5 6 18 1828.350 1887.200 48.300 0.699 o
5 6 19 58.723 47.757 5.368 65.572 o
5 6 20 306.560 346.595 12.447 9.304 o
5 6 21 1.652 -0.596 2.926 933.942 o
5 6 22 2.979 4.292 2.479 751.835 o
5 6 23 1862.550 1850.950 41.424 0.723 o
5 6 24 97.044 94.665 5.493 39.026 o
5 7 0 3621.190 3631.820 39.056 0.248 o
5 7 1 275.675 258.982 6.216 12.730 o
5 7 2 30.729 24.380 2.842 141.428 o
5 7 3 3327.910 3286.000 55.980 0.276 o
5 7 4 1246.110 1211.620 17.017 1.532 o
5 7 5 280.506 262.387 6.218 12.492 o
5 7 6 515.165 526.816 10.024 5.429 o
5 7 7 171.671 166.820 5.802 21.584 o
5 7 8 5.741 6.527 2.737 495.686 o
5 7 9 200.111 219.656 8.093 16.532 o
5 7 10 29.980 28.984 4.621 116.246 o
5 7 11 1531.290 1663.910 31.029 0.982 o
5 7 12 307.665 305.110 8.064 10.642 o
5 7 13 1.252 3.223 3.049 760.504 o
5 7 14 570.680 591.702 16.339 4.382 o
5 7 15 30.862 41.211 4.599 103.681 o
5 7 16 856.971 872.390 25.349 2.366 o
5 7 17 14.892 23.204 6.938 117.178 o
5 7 18 693.464 725.900 30.359 2.797 o
5 7 19 1197.420 1275.150 33.086 1.384 o
5 7 20 42.443 27.961 3.809 102.500 o
5 7 21 591.955 599.637 16.770 4.205 o
5 7 22 370.082 340.001 10.536 8.459 o
5 8 0 566.941 574.951 11.274 4.748 o
5 8 1 70.218 68.003 6.435 50.068 o
5 8 2 141.065 144.905 5.594 26.212 o
5 8 3 91.756 78.945 4.288 44.994 o
5 8 4 78.004 86.210 3.799 49.666 o
5 8 5 3468.880 3710.090 53.892 0.248 o
5 8 6 753.235 848.040 15.492 2.971 o
5 8 7 747.615 802.142 14.646 3.095 o
5 8 8 1077.060 1175.580 21.691 1.741 o
5 8 9 1547.080 1599.170 27.002 1.015 o
5 8 10 265.736 307.230 12.280 10.781 o
5 8 11 18.722 30.740 4.203 149.620 o
5 8 12 33.141 41.727 4.261 102.655 o
5 8 13 3.142 2.384 3.160 628.024 o
5 8 14 3.956 3.752 2.926 599.862 o
5 8 15 628.333 638.633 17.085 3.881 o
5 8 16 610.664 581.423 14.342 4.280 o
5 8 17 2.619 1.845 5.999 248.802 o
5 8 18 107.974 82.346 4.256 39.573 o
5 8 19 386.118 330.885 17.023 7.214 o
5 8 20 355.774 261.378 11.482 9.360 o
5 8 21 3.896 4.093 1.904 832.831 o
5 9 0 94.544 91.275 4.447 41.864 o
5 9 1 120.706 109.377 4.854 32.869 o
5 9 2 980.003 976.228 15.275 2.182 o
5 9 3 622.601 666.583 10.983 4.103 o
5 9 4 340.727 355.548 9.861 8.977 o
5 9 5 183.350 174.486 6.668 19.823 o
5 9 6 111.840 137.711 5.539 31.182 o
5 9 7 1648.000 1748.280 30.170 0.895 o
5 9 8 23.062 27.604 4.182 141.229 o
5 9 9 44.569 48.681 5.467 75.791 o
5 9 10 198.171 231.602 7.988 16.350 o
5 9 11 13.224 11.920 3.159 267.745 o
5 9 12 163.747 172.737 6.325 21.748 o
5 9 13 8.161 3.783 2.642 472.067 o
5 9 14 311.894 320.342 8.006 10.339 o
5 9 15 622.160 638.323 18.904 3.819 o
5 9 16 5.610 3.394 2.195 661.039 o
5 9 17 78.731 75.948 3.973 51.199 o
5 9 18 9.866 9.277 1.847 414.477 o
5 10 0 1637.450 1573.610 22.960 0.985 o
5 10 1 202.729 198.748 7.698 17.163 o
5 10 2 1358.200 1406.560 32.658 1.184 o
5 10 3 380.555 409.801 12.556 7.430 o
5 10 4 216.196 201.688 6.466 16.763 o
5 10 5 1372.110 1398.790 22.306 1.258 o
5 10 6 964.850 1052.000 17.538 2.101 o
5 10 7 257.138 284.812 7.580 12.639 o
5 10 8 143.950 154.946 7.477 23.788 o
5 10 9 17.323 28.782 4.805 145.777 o
5 10 10 272.840 321.354 8.591 11.297 o
5 10 11 1775.430 1895.240 34.063 0.780 o
5 10 12 16.034 13.338 2.371 261.547 o
5 10 13 814.130 718.378 17.344 2.932 o
5 10 14 57.090 59.073 6.625 57.587 o
5 10 15 281.265 251.232 17.999 9.362 o
5 10 16 390.586 341.518 13.510 7.652 o
5 11 0 799.925 807.021 13.266 2.936 o
5 11 1 1.516 1.814 2.895 859.765 o
5 11 2 491.549 499.376 10.663 5.741 o
5 11 3 377.304 407.177 10.572 7.758 o
5 11 4 266.830 290.509 7.559 12.204 o
5 11 5 139.645 143.900 7.607 24.760 o
5 11 6 393.799 404.332 17.111 6.640 o
5 11 7 82.536 76.617 6.203 44.566 o
5 11 8 332.152 340.839 17.775 7.765 o
5 11 9 369.810 432.355 20.146 6.290 o
5 11 10 1922.350 2037.580 41.679 0.667 o
5 11 11 344.873 347.792 22.753 6.556 o
5 11 12 166.396 168.376 8.520 20.302 o
5 12 0 250.587 243.308 12.579 12.067 o
5 12 1 20.187 22.671 4.509 152.393 o
5 12 2 800.267 833.643 32.309 2.321 o
5 12 3 818.542 869.084 19.416 2.630 o
5 12 4 330.917 304.707 11.829 9.359 o
5 12 5 228.281 274.957 10.251 13.114 o
5 12 6 1312.030 1420.370 30.716 1.234 o
5 12 7 1428.270 1599.730 39.151 1.011 o
5 12 8 1.212 1.670 3.437 692.215 o
5 12 9 58.211 41.162 4.398 72.886 o
5 13 0 1113.010 1090.750 22.630 1.738 o
5 13 1 665.762 576.751 16.309 3.886 o
5 13 2 103.874 100.664 4.974 37.318 o
5 13 3 248.699 251.541 11.987 12.204 o
5 13 5 312.703 255.000 10.873 10.591 o
6 -18 0 189.497 151.118 6.998 20.085 o
6 -18 1 85.442 56.525 4.024 52.432 o
6 -18 2 212.801 158.129 7.269 18.004 o
6 -18 3 30.626 23.367 2.085 151.183 o
6 -18 4 150.657 107.734 6.100 26.986 o
6 -18 5 322.936 242.627 10.496 10.572 o
6 -18 6 154.841 146.435 7.472 23.102 o
6 -18 7 138.377 121.938 6.588 27.244 o
6 -18 8 469.481 365.713 14.071 6.380 o
6 -18 9 316.891 205.864 8.688 11.695 o
6 -17 0 5.070 15.726 3.579 322.226 o
6 -17 1 63.767 61.742 4.880 59.903 o
6 -17 2 130.783 145.611 6.917 26.371 o
6 -17 3 1308.950 1445.370 41.013 1.126 o
6 -17 4 1266.730 1262.600 132.803 0.422 o
6 -17 5 669.116 683.849 52.160 1.934 o
6 -17 6 3767.030 3931.570 120.240 0.176 o
6 -17 7 134.298 143.344 6.531 26.416 o
6 -17 8 1198.650 1213.680 51.865 1.159 o
6 -17 9 145.032 169.666 9.605 21.192 o
6 -17 10 2071.160 1921.600 63.664 0.557 o
6 -17 11 4641.870 4168.390 132.775 0.134 o
6 -17 12 1297.840 1083.520 36.700 1.334 o
6 -17 13 330.085 240.815 27.969 6.184 o
6 -17 14 1114.850 742.968 26.114 1.959 o
6 -17 15 9.578 8.337 2.356 398.123 o
6 -16 0 79.429 105.899 5.234 42.918 o
6 -16 1 54.248 46.223 3.430 78.413 o
6 -16 2 0.444 2.866 2.504 1137.630 o
6 -16 3 166.970 184.836 7.892 20.011 o
6 -16 4 261.623 301.937 10.581 11.440 o
6 -16 5 0.144 -0.745 3.521 811.956 o
6 -16 6 126.619 125.284 4.724 30.486 o
6 -16 7 716.918 759.652 14.938 3.287 o
6 -16 8 225.164 216.189 6.267 15.919 o
6 -16 9 2.343 5.921 1.863 913.940 o
6 -16 10 0.254 4.206 2.370 1131.910 o
6 -16 11 798.193 778.525 18.951 2.839 o
6 -16 12 30.956 23.830 2.951 140.350 o
6 -16 13 42.142 28.522 2.575 111.320 o
6 -16 14 4.347 9.289 1.979 600.101 o
6 -16 15 266.569 222.309 8.298 13.271 o
6 -16 16 397.565 389.350 24.720 5.534 o
6 -16 17 148.809 97.778 5.956 28.067 o
6 -16 18 10.139 11.964 2.531 340.202 o
6 -15 0 3569.490 3836.440 63.672 0.230 o
6 -15 1 734.435 768.753 17.464 3.120 o
6 -15 2 1.368 4.338 2.562 874.090 o
6 -15 3 1306.690 1326.650 29.168 1.296 o
6 -15 4 128.752 130.261 6.293 28.302 o
6 -15 5 27.339 32.031 2.879 139.715 o
6 -15 6 84.495 80.918 4.596 46.656 o
6 -15 7 156.852 174.997 6.764 22.015 o
6 -15 8 1327.130 1342.870 21.941 1.330 o
6 -15 9 22.697 27.598 4.664 134.373 o
6 -15 10 95.334 87.580 4.112 42.688 o
6 -15 11 341.948 363.235 8.689 9.046 o
6 -15 12 281.465 316.759 7.788 11.272 o
6 -15 13 511.810 566.386 13.678 5.058 o
6 -15 14 323.709 339.102 9.372 9.596 o
6 -15 15 371.641 397.317 11.272 7.837 o
6 -15 16 92.590 79.219 5.196 43.046 o
6 -15 17 76.321 73.536 3.248 54.290 o
6 -15 18 2.842 1.023 1.436 1474.070 o
6 -15 19 368.429 351.780 7.643 8.759 o
6 -15 20 283.710 233.952 12.596 11.203 o
6 -15 21 0.981 0.969 2.381 1312.190 o
6 -14 0 529.711 521.644 12.249 5.189 o
6 -14 1 1720.670 1926.780 34.571 0.795 o
6 -14 2 0.997 2.635 2.967 841.362 o
6 -14 3 147.393 168.458 5.433 24.158 o
6 -14 4 204.961 188.136 6.305 17.945 o
6 -14 5 1838.150 1937.800 26.563 0.770 o
6 -14 6 2996.980 3241.000 44.395 0.323 o
6 -14 7 1.293 9.412 2.391 707.733 o
6 -14 8 1060.060 1142.160 22.085 1.787 o
6 -14 9 2815.370 2741.910 41.715 0.383 o
6 -14 10 224.118 232.766 7.044 15.297 o
6 -14 11 50.989 41.943 3.481 83.776 o
6 -14 12 1676.790 1804.670 31.664 0.858 o
6 -14 13 256.212 243.480 7.936 13.364 o
6 -14 14 526.728 515.354 11.279 5.303 o
6 -14 15 379.299 401.601 9.331 7.919 o
6 -14 16 626.863 643.303 15.731 3.943 o
6 -14 17 137.255 155.474 6.077 25.657 o
6 -14 18 168.273 181.843 6.405 20.896 o
6 -14 19 91.773 111.790 4.765 39.274 o
6 -14 20 215.144 217.237 6.445 16.384 o
6 -14 21 626.100 646.088 17.092 3.873 o
6 -14 22 1328.180 1278.700 30.445 1.285 o
6 -14 23 286.912 221.018 6.589 12.942 o
6 -13 0 2824.460 2843.360 45.999 0.369 o
6 -13 1 140.059 132.452 5.715 27.072 o
6 -13 2 293.585 245.096 7.258 12.131 o
6 -13 3 342.581 428.111 14.095 7.631 o
6 -13 4 2861.020 2905.200 56.194 0.347 o
6 -13 5 319.336 352.450 10.044 9.430 o
6 -13 6 976.044 979.224 15.509 2.184 o
6 -13 7 6134.480 6280.830 77.899 0.091 o
6 -13 8 1152.690 1244.230 19.249 1.612 o
6 -13 9 32.711 32.948 3.293 120.618 o
6 -13 10 10.177 13.360 3.135 295.775 o
6 -13 11 2.434 6.492 3.341 526.402 o
6 -13 12 5111.970 5358.290 100.973 0.118 o
6 -13 13 1450.120 1534.130 32.276 1.070 o
6 -13 14 843.830 795.462 20.773 2.626 o
6 -13 15 2381.400 2500.350 49.458 0.466 o
6 -13 16 80.186 97.007 5.391 43.785 o
6 -13 17 780.189 782.761 18.080 2.917 o
6 -13 18 1289.140 1316.820 27.397 1.334 o
6 -13 19 12.017 13.610 2.480 302.319 o
6 -13 20 1114.380 1173.680 23.374 1.667 o
6 -13 21 1088.180 1100.360 34.311 1.586 o
6 -13 22 231.128 214.165 25.225 8.184 o
6 -13 23 145.789 149.840 6.204 24.874 o
6 -13 24 15.460 8.197 2.192 304.530 o
6 -13 25 92.618 88.116 3.338 44.555 o
6 -12 0 3381.150 3496.710 58.952 0.260 o
6 -12 1 2473.770 2529.170 46.806 0.451 o
6 -12 2 10.341 6.040 3.107 350.058 o
6 -12 3 4039.760 3971.220 100.802 0.176 o
6 -12 4 3.786 7.540 2.961 517.062 o
6 -12 5 1354.550 1422.910 26.330 1.233 o
6 -12 6 5918.820 6080.190 82.387 0.096 o
6 -12 7 791.303 742.421 12.752 3.093 o
6 -12 8 79.458 66.275 3.556 53.930 o
6 -12 9 375.809 397.062 9.070 8.046 o
6 -12 10 1939.990 1988.180 31.799 0.703 o
6 -12 11 19.335 22.654 3.562 175.831 o
6 -12 12 3145.950 3175.840 53.579 0.302 o
6 -12 13 7720.210 7732.050 124.462 0.058 o
6 -12 14 457.243 485.292 10.421 6.190 o
6 -12 15 1105.400 1125.140 26.123 1.676 o
6 -12 16 6.988 9.039 3.007 395.341 o
6 -12 17 1215.650 1367.160 25.346 1.403 o
6 -12 18 137.816 154.396 5.694 25.947 o
6 -12 19 92.222 102.768 6.550 37.405 o
6 -12 20 54.255 54.101 4.199 71.678 o
6 -12 21 21.345 26.750 3.359 162.494 o
6 -12 22 70.602 66.822 3.323 58.918 o
6 -12 23 6.035 11.991 2.127 462.204 o
6 -12 24 29.029 27.596 2.050 149.740 o
6 -12 25 232.989 182.788 10.098 14.910 o
6 -12 26 56.964 69.099 5.159 60.743 o
6 -11 0 4.112 6.072 2.398 632.445 o
6 -11 1 588.968 571.874 14.349 4.446 o
6 -11 2 159.972 210.370 6.580 20.303 o
6 -11 3 849.781 848.228 23.815 2.455 o
6 -11 4 5.692 7.988 2.878 456.052 o
6 -11 5 848.915 884.397 21.007 2.487 o
6 -11 6 13.582 12.911 3.053 263.525 o
6 -11 7 442.153 473.010 10.518 6.425 o
6 -11 8 3.865 3.795 2.552 686.274 o
6 -11 9 3691.040 3680.650 51.790 0.234 o
6 -11 10 1979.380 1935.430 29.463 0.705 o
6 -11 11 153.500 133.301 5.332 25.566 o
6 -11 12 1618.580 1580.690 30.023 0.960 o
6 -11 13 616.478 646.742 14.892 4.030 o
6 -11 14 290.583 314.092 7.223 11.146 o
6 -11 15 238.899 229.035 6.886 14.720 o
6 -11 16 1143.150 1237.730 21.475 1.607 o
6 -11 17 228.694 241.389 7.131 14.837 o
6 -11 18 601.143 618.623 12.433 4.317 o
6 -11 19 1115.970 1163.390 23.889 1.665 o
6 -11 20 1417.900 1388.270 32.656 1.144 o
6 -11 21 1225.900 1336.760 42.991 1.208 o
6 -11 22 3.340 0.541 2.966 728.577 o
6 -11 23 0.351 0.871 2.751 1175.130 o
6 -11 24 294.555 350.283 9.654 10.102 o
6 -11 25 26.830 35.946 3.717 126.331 o
6 -11 26 355.759 372.880 9.726 8.536 o
6 -11 27 171.922 158.813 6.304 21.649 o
6 -11 28 536.485 457.903 16.544 5.074 o
6 -10 0 57.789 34.833 3.740 79.180 o
6 -10 1 5.065 7.375 2.434 546.953 o
6 -10 2 9754.100 10211.400 121.519 0.037 o
6 -10 3 32.729 55.914 4.190 93.363 o
6 -10 4 857.512 929.712 18.616 2.464 o
6 -10 5 2973.280 3024.530 48.126 0.335 o
6 -10 6 786.832 731.490 13.717 3.106 o
6 -10 7 3085.720 3058.820 45.136 0.323 o
6 -10 8 1257.490 1301.960 23.564 1.410 o
6 -10 9 0.593 6.871 2.213 950.963 o
6 -10 10 1101.940 1017.200 15.247 1.906 o
6 -10 11 205.521 232.637 8.504 15.714 o
6 -10 12 414.471 446.829 11.633 6.821 o
6 -10 13 559.843 577.167 11.620 4.774 o
6 -10 14 262.147 295.024 6.995 12.409 o
6 -10 15 468.955 531.024 11.153 5.773 o
6 -10 16 353.347 356.064 8.616 8.897 o
6 -10 17 47.777 65.353 3.957 73.403 o
6 -10 18 240.785 251.119 7.198 14.049 o
6 -10 19 635.170 608.456 12.424 4.143 o
6 -10 20 179.250 188.806 6.529 19.655 o
6 -10 21 733.730 721.157 15.072 3.293 o
6 -10 22 13.151 9.758 3.383 269.579 o
6 -10 23 42.552 29.212 3.512 103.560 o
6 -10 24 27.831 26.061 3.282 142.371 o
6 -10 25 0.246 4.977 2.932 813.998 o
6 -10 26 338.272 318.140 8.793 9.599 o
6 -10 27 175.151 180.728 6.937 20.082 o
6 -10 28 20.987 20.644 1.910 204.064 o
6 -10 29 161.990 144.906 6.603 23.090 o
6 -9 0 5567.850 5616.550 72.667 0.110 o
6 -9 1 3728.010 3852.800 51.470 0.226 o
6 -9 2 39.886 80.376 3.701 74.784 o
6 -9 3 468.457 561.138 10.564 5.672 o
6 -9 4 51.067 54.653 4.835 71.170 o
6 -9 5 2319.170 2419.150 36.520 0.514 o
6 -9 6 4018.790 3974.940 78.758 0.190 o
6 -9 7 20.484 12.926 2.448 223.014 o
6 -9 8 3890.780 3687.970 47.528 0.222 o
6 -9 9 474.174 446.636 9.626 6.278 o
6 -9 10 152.520 132.479 5.062 25.921 o
6 -9 11 0.522 8.898 3.052 618.281 o
6 -9 12 1757.940 1821.840 29.388 0.824 o
6 -9 13 6151.960 6141.650 86.561 0.091 o
6 -9 14 291.878 271.427 7.588 11.688 o
6 -9 15 147.579 131.798 5.329 26.413 o
6 -9 16 166.824 171.329 5.983 21.724 o
6 -9 17 18.791 15.024 3.247 206.880 o
6 -9 18 1522.050 1449.750 23.787 1.103 o
6 -9 19 2969.640 2949.380 43.133 0.345 o
6 -9 20 128.662 140.236 4.981 28.748 o
6 -9 21 952.366 980.494 23.558 2.091 o
6 -9 22 164.800 156.012 5.269 23.058 o
6 -9 23 145.102 164.872 8.440 22.375 o
6 -9 24 294.663 328.005 9.799 10.349 o
6 -9 25 13.384 14.937 4.040 217.481 o
6 -9 26 17.649 19.198 3.111 204.575 o
6 -9 27 71.374 58.016 3.063 61.664 o
6 -9 28 198.396 198.498 20.343 10.871 o
6 -9 29 221.573 216.085 9.341 14.985 o
6 -8 0 11323.400 11584.300 226.528 0.026 o
6 -8 1 855.614 706.514 20.884 2.716 o
6 -8 2 2123.430 2123.890 45.464 0.580 o
6 -8 3 1912.770 1690.380 48.173 0.704 o
6 -8 4 244.060 248.246 11.455 12.604 o
6 -8 5 87.346 62.520 5.588 46.824 o
6 -8 6 7990.840 7719.210 116.957 0.056 o
6 -8 7 50.578 53.614 3.213 79.263 o
6 -8 8 18.482 35.116 3.165 160.584 o
6 -8 9 17795.200 17355.800 209.732 0.012 o
6 -8 10 35.846 42.432 3.601 103.058 o
6 -8 11 5710.560 5612.280 69.133 0.107 o
6 -8 12 697.351 744.087 13.639 3.443 o
6 -8 13 59.809 55.282 4.190 67.001 o
6 -8 14 10580.300 10058.400 126.471 0.034 o
6 -8 15 211.883 229.156 9.062 15.252 o
6 -8 16 473.711 533.977 11.689 5.673 o
6 -8 17 865.036 747.963 15.692 2.765 o
6 -8 18 4065.530 3980.780 56.533 0.198 o
6 -8 19 3002.260 2854.070 42.067 0.348 o
6 -8 20 463.426 450.148 9.440 6.396 o
6 -8 21 13.159 12.822 4.095 224.518 o
6 -8 22 574.589 610.134 10.498 4.605 o
6 -8 23 156.106 153.089 5.259 24.149 o
6 -8 24 151.715 151.055 5.808 24.407 o
6 -8 25 265.273 303.119 8.117 11.921 o
6 -8 26 534.864 554.665 17.175 4.682 o
6 -8 27 151.068 142.847 6.067 24.768 o
6 -8 28 309.703 316.948 13.919 9.221 o
6 -8 29 0.760 0.610 1.526 2641.170 o
6 -8 30 113.618 129.408 5.880 31.227 o
6 -7 0 10617.300 10272.300 173.351 0.032 o
6 -7 1 2858.260 2891.410 60.639 0.342 o
6 -7 2 2053.830 1795.650 39.058 0.673 o
6 -7 3 187.875 162.235 12.418 16.434 o
6 -7 4 162.261 217.121 18.485 12.574 o
6 -7 5 71.873 49.823 7.706 48.743 o
6 -7 6 367.330 381.872 18.735 6.833 o
6 -7 7 812.628 905.546 19.124 2.604 o
6 -7 8 1132.430 1015.140 17.052 1.836 o
6 -7 9 217.201 200.733 5.996 16.894 o
6 -7 10 1940.310 2039.600 29.944 0.698 o
6 -7 11 83.463 71.863 4.114 49.773 o
6 -7 12 8.216 7.622 2.555 423.924 o
6 -7 13 62.032 72.624 4.280 59.672 o
6 -7 14 2907.960 2701.850 44.057 0.369 o
6 -7 15 1466.090 1341.910 24.843 1.183 o
6 -7 16 126.716 98.113 5.188 32.448 o
6 -7 17 1296.590 1268.150 22.661 1.394 o
6 -7 18 50.444 53.398 4.236 75.064 o
6 -7 19 448.896 460.174 12.265 6.265 o
6 -7 20 740.798 785.336 16.083 3.110 o
6 -7 21 899.485 880.275 18.274 2.428 o
6 -7 22 110.969 125.222 5.131 32.927 o
6 -7 23 94.291 85.179 4.225 43.226 o
6 -7 24 161.906 177.232 6.475 21.623 o
6 -7 25 14.744 25.260 3.347 197.795 o
6 -7 26 705.537 693.776 22.290 3.178 o
6 -7 27 57.934 68.421 4.475 62.810 o
6 -7 28 32.899 45.845 3.560 105.443 o
6 -7 29 27.661 22.795 2.631 156.820 o
6 -7 30 147.718 133.854 3.942 27.158 o
6 -6 0 667.351 868.823 22.269 3.005 o
6 -6 1 789.152 863.542 31.819 2.329 o
6 -6 2 555.028 577.196 20.446 4.245 o
6 -6 3 67.387 45.750 8.883 46.796 o
6 -6 4 566.746 651.453 42.732 2.571 o
6 -6 5 862.808 903.002 36.195 2.014 o
6 -6 6 207.114 155.931 15.514 13.790 o
6 -6 7 1330.010 1355.020 39.271 1.162 o
6 -6 8 57.453 82.357 9.002 43.609 o
6 -6 9 638.424 644.946 18.590 3.739 o
6 -6 10 14.542 7.504 2.923 288.627 o
6 -6 11 547.348 458.725 13.649 5.208 o
6 -6 12 35.279 29.822 3.795 113.752 o
6 -6 13 5.538 0.241 3.522 495.612 o
6 -6 14 123.610 109.426 7.044 29.857 o
6 -6 15 77.721 78.694 7.785 41.720 o
6 -6 16 1159.650 1077.430 26.384 1.631 o
6 -6 17 34.827 33.222 4.914 100.670 o
6 -6 18 381.910 391.177 15.025 7.187 o
6 -6 19 1222.510 1214.130 26.806 1.465 o
6 -6 20 55.955 39.378 5.227 71.420 o
6 -6 21 1119.450 1163.580 25.876 1.634 o
6 -6 22 4.314 4.467 4.284 366.814 o
6 -6 23 39.210 29.500 3.861 106.196 o
6 -6 24 254.316 262.397 7.214 13.256 o
6 -6 25 16.410 23.161 2.914 204.823 o
6 -6 26 2185.150 2118.480 36.805 0.587 o
6 -6 27 500.441 520.828 9.981 5.596 o
6 -6 28 0.119 1.712 2.241 1589.500 o
6 -6 29 428.547 444.533 9.287 6.877 o
6 -6 30 361.483 335.376 14.396 8.011 o
6 -5 0 5216.920 5345.640 93.632 0.117 o
6 -5 1 8313.470 8503.300 143.335 0.049 o
6 -5 2 494.747 418.635 22.033 5.011 o
6 -5 3 7.706 1.591 6.078 207.371 o
6 -5 4 673.621 683.556 57.869 1.724 o
6 -5 5 1187.240 1357.900 46.505 1.186 o
6 -5 6 1783.170 1634.510 43.489 0.789 o
6 -5 7 3040.760 3048.500 70.278 0.300 o
6 -5 8 2010.350 2121.750 53.380 0.585 o
6 -5 9 6688.650 6222.810 187.490 0.067 o
6 -5 10 345.316 374.970 12.977 8.199 o
6 -5 11 28.266 25.793 3.179 142.768 o
6 -5 12 495.310 458.452 10.555 5.917 o
6 -5 13 10.758 14.170 3.256 277.802 o
6 -5 14 5618.630 5685.490 105.673 0.102 o
6 -5 15 2168.400 2068.230 37.306 0.598 o
6 -5 16 1394.300 1339.270 26.752 1.232 o
6 -5 17 1197.060 1264.900 47.197 1.205 o
6 -5 18 163.528 204.450 9.462 18.557 o
6 -5 19 1742.200 1779.150 35.733 0.814 o
6 -5 20 61.306 55.154 5.968 59.104 o
6 -5 21 243.528 248.742 10.802 12.844 o
6 -5 22 3737.220 3728.010 91.177 0.203 o
6 -5 23 20.127 28.826 8.419 83.688 o
6 -5 24 778.069 823.058 20.367 2.789 o
6 -5 25 130.096 123.159 6.385 28.536 o
6 -5 26 363.024 423.396 10.227 7.901 o
6 -5 27 1010.130 1001.410 18.928 2.041 o
6 -5 28 208.467 209.814 5.851 17.197 o
6 -5 29 240.887 226.661 8.420 14.204 o
6 -5 30 337.187 332.036 9.436 9.365 o
6 -4 0 12031.200 12271.200 286.744 0.022 o
6 -4 1 6712.670 6532.770 161.151 0.069 o
6 -4 2 24333.100 24726.900 560.619 0.006 o
6 -4 3 478.110 518.381 24.496 4.535 o
6 -4 4 317.276 296.781 18.421 8.192 o
6 -4 5 460.927 636.817 28.168 3.967 o
6 -4 6 1449.000 1539.190 41.087 1.001 o
6 -4 7 9578.380 9629.710 188.329 0.037 o
6 -4 8 750.008 793.344 19.872 2.942 o
6 -4 9 3357.160 3226.080 59.316 0.274 o
6 -4 10 8200.090 8375.580 222.973 0.044 o
6 -4 11 116.896 100.719 5.558 33.681 o
6 -4 12 1579.600 1542.610 54.816 0.827 o
6 -4 13 32.094 40.421 5.012 98.415 o
6 -4 14 25.263 33.865 5.354 111.451 o
6 -4 15 17579.600 17114.900 390.562 0.011 o
6 -4 16 238.829 228.690 11.777 13.021 o
6 -4 17 3153.230 3072.970 56.192 0.304 o
6 -4 18 4303.190 4211.750 68.684 0.175 o
6 -4 19 923.996 921.215 19.708 2.291 o
6 -4 20 1422.690 1396.580 30.601 1.154 o
6 -4 21 928.419 868.915 23.804 2.249 o
6 -4 22 209.702 201.820 9.470 15.875 o
6 -4 23 1972.610 1977.820 50.758 0.626 o
6 -4 24 3.997 1.146 3.307 581.857 o
6 -4 25 47.074 49.806 3.627 83.056 o
6 -4 26 76.237 63.524 3.610 56.112 o
6 -4 27 55.932 43.987 3.051 79.349 o
6 -4 28 1043.750 1103.840 17.960 1.900 o
6 -4 29 274.479 306.548 8.313 11.531 o
6 -4 30 1.140 0.537 1.407 2541.230 o
6 -3 0 5613.410 6181.290 216.042 0.073 o
6 -3 1 609.156 554.564 35.062 3.042 o
6 -3 2 4714.730 4347.750 158.283 0.119 o
6 -3 3 1084.280 1276.160 60.123 1.099 o
6 -3 4 7692.740 7632.040 221.488 0.049 o
6 -3 5 13052.600 14167.800 263.137 0.019 o
6 -3 6 1502.870 1421.490 30.241 1.087 o
6 -3 7 179.727 177.406 8.099 19.201 o
6 -3 8 958.987 907.662 23.581 2.149 o
6 -3 9 80.216 64.756 5.099 50.385 o
6 -3 10 1054.760 1052.740 62.418 1.151 o
6 -3 11 605.389 551.301 13.671 4.443 o
6 -3 12 423.822 455.241 12.444 6.567 o
6 -3 13 3277.800 2957.220 47.171 0.305 o
6 -3 14 283.866 349.263 14.804 9.207 o
6 -3 15 61.675 55.560 8.651 47.977 o
6 -3 16 7237.330 7306.040 312.453 0.042 o
6 -3 17 167.869 192.253 28.594 8.022 o
6 -3 18 2341.040 2236.800 68.719 0.452 o
6 -3 19 213.597 182.965 9.425 16.190 o
6 -3 20 1559.820 1459.720 49.364 0.896 o
6 -3 21 950.053 933.392 22.239 2.169 o
6 -3 22 224.185 231.948 9.998 14.242 o
6 -3 23 1941.420 1955.990 59.589 0.602 o
6 -3 24 17.681 17.200 3.076 211.646 o
6 -3 25 1.581 0.514 2.653 1054.360 o
6 -3 26 966.877 1045.290 18.066 2.096 o
6 -3 27 125.221 137.688 5.728 28.816 o
6 -3 28 243.224 277.372 6.817 13.497 o
6 -3 29 15.497 18.533 3.039 223.264 o
6 -3 30 256.677 233.683 10.532 12.734 o
6 -2 0 7263.260 8599.020 220.069 0.049 o
6 -2 1 1333.540 1413.360 51.582 1.012 o
6 -2 2 6960.750 6696.340 138.749 0.069 o
6 -2 3 5675.720 5943.290 137.353 0.091 o
6 -2 4 2091.060 2101.880 54.996 0.561 o
6 -2 5 2837.040 2993.440 74.930 0.318 o
6 -2 6 11116.500 12079.900 226.338 0.026 o
6 -2 7 124.717 217.899 8.985 21.373 o
6 -2 8 177.994 196.320 8.431 18.465 o
6 -2 9 59.050 73.720 15.870 25.526 o
6 -2 10 107.693 107.245 8.610 30.426 o
6 -2 11 2056.660 2052.940 38.047 0.632 o
6 -2 12 476.172 509.700 12.046 5.740 o
6 -2 13 258.914 221.453 7.588 13.800 o
6 -2 14 544.924 519.048 14.279 4.944 o
6 -2 15 506.691 539.997 14.913 5.115 o
6 -2 16 83.981 82.389 6.181 43.217 o
6 -2 17 2275.380 2249.710 60.322 0.486 o
6 -2 18 1504.600 1435.690 30.712 1.077 o
6 -2 19 2068.430 2029.960 49.739 0.595 o
6 -2 20 1069.630 1036.930 33.514 1.664 o
6 -2 21 13.957 11.905 4.791 195.777 o
6 -2 22 1188.910 1160.900 37.059 1.398 o
6 -2 23 102.123 104.803 7.402 33.572 o
6 -2 24 12.652 12.287 3.770 244.387 o
6 -2 25 166.529 181.818 7.322 20.517 o
6 -2 26 226.020 226.821 6.941 15.384 o
6 -2 27 821.528 874.063 16.771 2.681 o
6 -2 28 122.243 113.341 3.965 33.016 o
6 -2 29 516.758 547.284 15.081 4.995 o
6 -2 30 200.528 179.067 5.752 18.780 o
6 -1 0 160.264 244.337 9.292 17.573 o
6 -1 1 1433.140 1459.210 39.877 1.047 o
6 -1 2 1889.680 2533.900 55.045 0.557 o
6 -1 3 41.770 39.455 6.752 73.667 o
6 -1 4 7307.020 7718.400 176.677 0.056 o
6 -1 5 1493.020 1695.020 65.016 0.756 o
6 -1 6 883.797 1063.170 49.170 1.543 o
6 -1 7 490.095 505.717 32.165 3.778 o
6 -1 8 2899.260 3156.840 119.401 0.241 o
6 -1 9 11007.000 11087.400 365.736 0.023 o
6 -1 10 307.713 262.446 8.736 11.107 o
6 -1 11 431.973 420.460 17.145 6.124 o
6 -1 12 3249.800 3252.500 52.988 0.288 o
6 -1 13 30.780 37.156 3.917 114.200 o
6 -1 14 2431.180 2370.900 39.758 0.489 o
6 -1 15 1795.610 1640.990 29.672 0.848 o
6 -1 16 77.503 92.327 5.713 44.761 o
6 -1 17 763.212 786.963 18.424 2.956 o
6 -1 18 2786.030 2825.290 45.089 0.377 o
6 -1 19 11.209 4.968 4.736 240.807 o
6 -1 20 963.951 910.726 34.417 1.889 o
6 -1 21 828.095 834.413 18.370 2.680 o
6 -1 22 302.865 286.777 8.992 10.846 o
6 -1 23 1276.760 1219.910 23.938 1.431 o
6 -1 24 79.896 80.059 4.392 48.992 o
6 -1 25 63.462 64.629 3.840 62.530 o
6 -1 26 86.188 89.729 3.479 46.336 o
6 -1 27 217.213 236.857 7.104 15.524 o
6 -1 28 659.262 630.448 17.307 3.736 o
6 -1 29 38.166 32.767 3.759 106.032 o
6 0 0 8148.770 8448.840 241.695 0.042 o
6 0 1 7258.590 6972.670 249.678 0.051 o
6 0 2 15525.900 14932.200 281.179 0.015 o
6 0 3 3951.090 3559.620 98.098 0.192 o
6 0 4 1601.890 1588.970 74.560 0.672 o
6 0 5 5227.860 5531.550 152.526 0.099 o
6 0 6 190.180 129.233 7.188 20.819 o
6 0 7 6107.570 6353.720 131.935 0.083 o
6 0 8 6502.100 6444.610 126.564 0.077 o
6 0 9 3063.940 3003.490 73.778 0.296 o
6 0 10 2882.360 2736.890 72.417 0.331 o
6 0 11 189.656 170.120 6.947 19.365 o
6 0 12 78.427 59.545 4.763 53.199 o
6 0 13 5.030 12.161 3.569 352.955 o
6 0 14 552.430 549.029 13.346 4.835 o
6 0 15 162.048 161.710 11.238 18.864 o
6 0 16 1223.740 1176.820 25.083 1.504 o
6 0 17 42.840 49.527 4.018 85.855 o
6 0 18 1731.230 1689.270 42.309 0.806 o
6 0 19 27.689 23.638 3.187 147.923 o
6 0 20 1.087 2.163 2.780 940.557 o
6 0 21 12.592 9.003 3.223 288.162 o
6 0 22 46.864 46.287 3.545 85.660 o
6 0 23 213.685 218.575 11.721 14.239 o
6 0 24 1151.690 1235.560 24.745 1.560 o
6 0 25 791.778 841.891 14.546 2.875 o
6 0 26 355.354 334.546 13.948 8.201 o
6 0 27 451.015 462.370 9.662 6.453 o
6 0 28 140.806 132.631 7.907 24.994 o
6 0 29 6.276 6.218 1.625 625.643 o
6 1 0 6563.350 6493.340 149.980 0.073 o
6 1 1 156.243 228.893 8.848 18.598 o
6 1 2 7395.080 7568.210 140.650 0.060 o
6 1 3 9532.590 9183.570 195.859 0.037 o
6 1 4 51.095 53.623 5.008 70.723 o
6 1 5 1.595 38.947 4.982 183.169 o
6 1 6 1116.650 1206.300 30.386 1.548 o
6 1 7 150.908 174.044 8.608 21.296 o
6 1 8 250.456 192.517 7.680 14.789 o
6 1 9 5418.390 5207.460 91.103 0.114 o
6 1 10 1784.720 1652.180 33.963 0.832 o
6 1 11 1863.110 1823.500 32.513 0.764 o
6 1 12 1308.370 1207.910 37.161 1.263 o
6 1 13 330.453 335.905 14.158 8.586 o
6 1 14 134.355 117.089 7.658 27.017 o
6 1 15 2162.340 2201.410 62.432 0.508 o
6 1 16 525.601 514.060 10.831 5.346 o
6 1 17 1975.350 2001.000 29.047 0.695 o
6 1 18 1068.850 1101.950 21.396 1.814 o
6 1 19 2.261 4.522 2.574 774.676 o
6 1 20 1476.560 1449.680 22.908 1.143 o
6 1 21 19.640 18.124 2.711 205.087 o
6 1 22 122.372 147.380 5.208 28.975 o
6 1 23 15.869 19.446 2.612 229.064 o
6 1 24 84.156 89.798 5.062 44.317 o
6 1 25 2.255 4.959 2.386 812.953 o
6 1 26 200.974 211.636 9.218 16.196 o
6 1 27 81.419 101.302 5.101 43.265 o
6 1 28 5.524 2.737 1.655 799.863 o
6 2 0 571.661 592.712 15.193 4.442 o
6 2 1 4384.540 4413.250 104.975 0.152 o
6 2 2 1093.140 1229.060 36.881 1.465 o
6 2 3 326.169 294.162 12.614 9.408 o
6 2 4 917.380 980.602 26.329 2.099 o
6 2 5 304.180 308.141 12.205 9.833 o
6 2 6 1938.220 1822.690 36.194 0.720 o
6 2 7 287.652 288.243 8.602 11.347 o
6 2 8 513.361 436.980 10.924 5.816 o
6 2 9 3108.860 3030.070 55.867 0.311 o
6 2 10 229.649 205.690 10.160 14.513 o
6 2 11 1353.800 1270.630 27.157 1.296 o
6 2 12 807.796 785.051 20.720 2.746 o
6 2 13 19.380 13.215 4.241 181.356 o
6 2 14 503.090 472.154 12.236 5.647 o
6 2 15 660.859 706.131 15.481 3.628 o
6 2 16 89.221 121.974 6.915 35.267 o
6 2 17 3239.160 3271.260 45.180 0.294 o
6 2 18 201.606 194.376 6.530 17.869 o
6 2 19 39.886 47.770 3.877 91.388 o
6 2 20 2276.700 2326.040 37.130 0.535 o
6 2 21 29.970 31.511 3.484 126.717 o
6 2 22 164.281 212.934 8.005 19.087 o
6 2 23 15.139 18.047 2.813 234.631 o
6 2 24 3.381 3.522 1.923 914.708 o
6 2 25 1415.380 1449.310 29.239 1.149 o
6 2 26 197.068 191.092 10.475 16.326 o
6 2 27 120.032 122.457 7.016 29.426 o
6 3 0 246.550 338.206 13.952 10.396 o
6 3 1 206.464 195.587 5.162 18.011 o
6 3 2 1680.350 1592.040 35.808 0.890 o
6 3 3 78.306 55.470 3.552 57.278 o
6 3 4 1106.760 1048.680 22.131 1.786 o
6 3 5 198.182 284.060 7.773 15.068 o
6 3 6 6129.680 5979.240 127.867 0.086 o
6 3 7 3349.070 3282.500 59.253 0.272 o
6 3 8 120.613 117.357 7.123 29.607 o
6 3 9 1372.550 1347.210 25.094 1.261 o
6 3 10 170.556 172.883 6.205 21.196 o
6 3 11 1570.070 1448.510 28.493 1.042 o
6 3 12 311.936 285.854 9.481 10.513 o
6 3 13 801.549 903.728 23.055 2.529 o
6 3 14 44.326 48.473 5.046 78.694 o
6 3 15 79.852 81.153 5.706 45.889 o
6 3 16 52.376 41.995 4.661 76.354 o
6 3 17 31.398 38.982 4.465 105.953 o
6 3 18 37.453 31.042 4.160 105.263 o
6 3 19 1.118 0.109 3.404 770.324 o
6 3 20 108.537 109.092 4.759 35.526 o
6 3 21 1869.730 1930.670 34.211 0.733 o
6 3 22 45.931 56.533 4.059 78.656 o
6 3 23 22.805 27.251 2.670 166.563 o
6 3 24 3407.860 3607.320 98.015 0.220 o
6 3 25 847.537 838.947 21.494 2.537 o
6 3 26 124.207 140.832 7.416 27.047 o
6 4 0 1155.300 1171.730 13.996 1.707 o
6 4 1 173.438 169.208 3.980 22.139 o
6 4 2 323.223 251.309 5.819 11.334 o
6 4 3 5158.110 4433.730 100.395 0.129 o
6 4 4 3349.080 3080.510 63.589 0.277 o
6 4 5 484.874 441.191 10.931 6.089 o
6 4 6 54.659 72.777 5.174 60.965 o
6 4 7 2608.590 2570.090 54.355 0.410 o
6 4 8 6142.920 5798.950 112.739 0.090 o
6 4 9 12329.800 11752.400 181.020 0.025 o
6 4 10 2.655 8.167 3.500 463.584 o
6 4 11 4089.940 4018.810 61.324 0.194 o
6 4 12 89.219 95.130 4.849 42.246 o
6 4 13 125.170 129.464 6.293 28.896 o
6 4 14 201.304 176.337 7.191 18.199 o
6 4 15 902.965 962.786 21.904 2.245 o
6 4 16 954.509 965.826 23.466 2.103 o
6 4 17 2099.280 2158.030 44.806 0.584 o
6 4 18 4.835 8.033 2.682 508.513 o
6 4 19 1055.880 1097.230 21.371 1.839 o
6 4 20 213.268 235.781 7.038 15.779 o
6 4 21 720.667 739.033 17.740 3.218 o
6 4 22 490.376 547.419 13.687 5.312 o
6 4 23 214.425 217.691 7.535 16.020 o
6 4 24 90.093 91.821 4.623 42.866 o
6 4 25 391.752 323.204 12.768 7.892 o
6 5 0 21.718 30.674 2.502 166.335 o
6 5 1 1142.540 1104.960 14.907 1.769 o
6 5 2 6667.790 6361.650 75.711 0.082 o
6 5 3 393.012 405.825 8.691 7.730 o
6 5 4 24962.900 23745.800 407.257 0.006 o
6 5 5 7054.670 6876.500 87.444 0.072 o
6 5 6 7.371 17.007 2.930 320.832 o
6 5 7 3234.460 3441.150 50.221 0.283 o
6 5 8 201.177 206.964 8.419 16.687 o
6 5 9 3106.630 3239.190 47.635 0.308 o
6 5 10 176.302 192.236 7.439 19.278 o
6 5 11 33.075 33.982 4.157 110.450 o
6 5 12 1467.120 1561.670 30.181 1.063 o
6 5 13 161.116 163.901 11.003 19.036 o
6 5 14 121.050 94.400 5.115 34.007 o
6 5 15 612.026 563.340 19.561 4.026 o
6 5 16 291.480 312.458 8.910 10.823 o
6 5 17 445.032 462.267 14.803 6.041 o
6 5 18 15.576 12.621 5.950 151.207 o
6 5 19 196.271 224.800 8.204 16.555 o
6 5 20 133.639 135.578 5.923 27.566 o
6 5 21 13.169 13.019 3.656 241.675 o
6 5 22 75.418 95.831 5.265 45.861 o
6 5 23 17.615 12.789 1.787 264.683 o
6 6 0 2745.520 2784.580 32.055 0.401 o
6 6 1 318.395 300.943 6.109 10.714 o
6 6 2 145.971 156.415 5.043 25.264 o
6 6 3 5586.730 5458.460 65.859 0.112 o
6 6 4 863.054 894.655 13.859 2.592 o
6 6 5 7608.250 7687.470 95.218 0.061 o
6 6 6 1001.870 1050.100 16.967 2.038 o
6 6 7 2107.520 2110.970 34.935 0.616 o
6 6 8 3.698 9.938 4.260 332.238 o
6 6 9 156.362 129.271 6.318 24.755 o
6 6 10 920.255 989.459 18.902 2.238 o
6 6 11 104.692 90.882 4.831 38.533 o
6 6 12 488.805 458.894 13.272 5.764 o
6 6 13 166.576 177.640 5.948 21.477 o
6 6 14 4.967 7.007 2.812 504.660 o
6 6 15 1075.540 1087.250 30.603 1.673 o
6 6 16 272.204 287.403 11.948 10.967 o
6 6 17 11.337 8.718 3.270 303.325 o
6 6 18 97.850 122.369 5.728 35.175 o
6 6 19 162.953 150.637 8.192 21.580 o
6 6 20 14.113 12.771 3.094 257.259 o
6 6 21 1172.780 1245.920 29.068 1.476 o
6 6 22 69.178 68.009 4.854 55.374 o
6 7 0 2996.540 3063.130 32.405 0.344 o
6 7 1 1045.500 1072.640 13.919 1.972 o
6 7 2 795.574 841.547 16.938 2.804 o
6 7 3 2783.630 2873.230 59.097 0.355 o
6 7 4 310.372 322.140 6.661 10.566 o
6 7 5 821.188 801.968 12.128 2.896 o
6 7 6 242.474 271.691 6.917 13.618 o
6 7 7 30.788 35.987 3.983 114.680 o
6 7 8 341.815 354.648 10.354 8.886 o
6 7 9 402.177 418.662 11.240 7.219 o
6 7 10 753.964 783.268 17.026 3.037 o
6 7 11 608.325 690.070 15.220 3.941 o
6 7 12 323.590 336.121 11.028 9.336 o
6 7 13 1744.210 1814.000 37.617 0.796 o
6 7 14 9.153 9.215 2.951 354.291 o
6 7 15 55.459 54.994 4.807 67.800 o
6 7 16 187.136 182.465 7.993 18.554 o
6 7 17 540.036 567.709 16.501 4.650 o
6 7 18 176.364 144.148 6.030 22.075 o
6 7 19 399.927 391.222 11.365 7.435 o
6 7 20 134.559 131.148 5.162 28.398 o
6 8 0 253.334 263.677 6.369 13.470 o
6 8 1 31.807 32.952 2.871 126.593 o
6 8 2 4.110 5.830 3.098 515.652 o
6 8 3 15.533 18.482 3.207 218.194 o
6 8 4 9.411 4.734 2.937 395.566 o
6 8 5 1.897 1.293 2.740 913.301 o
6 8 6 336.475 361.233 9.282 9.094 o
6 8 7 3.251 9.775 3.321 446.671 o
6 8 8 352.446 390.203 11.083 8.245 o
6 8 9 1011.030 1067.030 24.996 1.881 o
6 8 10 97.786 105.603 5.876 36.869 o
6 8 11 743.545 779.357 16.479 3.099 o
6 8 12 1264.140 1337.730 29.087 1.332 o
6 8 13 5.356 2.980 2.305 668.896 o
6 8 14 32.798 31.993 3.048 123.767 o
6 8 15 16.519 18.672 2.736 223.777 o
6 8 16 20.314 13.031 3.634 193.387 o
6 8 17 381.226 314.216 79.000 1.396 o
6 8 18 572.136 567.909 21.257 4.118 o
6 9 0 31.664 35.425 3.359 119.577 o
6 9 1 679.441 698.028 14.218 3.608 o
6 9 2 186.850 190.765 6.370 19.085 o
6 9 3 1177.750 1236.590 26.457 1.507 o
6 9 4 388.866 455.735 12.505 6.999 o
6 9 5 2857.470 3116.250 54.142 0.337 o
6 9 6 84.259 79.708 4.413 47.324 o
6 9 7 36.353 37.482 3.349 108.345 o
6 9 8 664.518 718.775 17.853 3.485 o
6 9 9 228.385 210.232 8.125 15.271 o
6 9 10 527.438 581.309 19.054 4.503 o
6 9 11 207.360 244.610 8.063 15.487 o
6 9 12 331.484 356.132 11.435 8.894 o
6 9 13 987.752 874.512 88.292 0.849 o
6 9 14 2.988 6.416 2.643 638.960 o
6 9 15 28.795 22.363 2.705 152.590 o
6 9 16 173.554 153.980 7.442 21.023 o
6 10 0 21.264 20.475 3.666 169.918 o
6 10 1 150.217 151.358 6.310 24.206 o
6 10 2 369.923 364.308 9.031 8.445 o
6 10 3 1068.460 1184.430 23.396 1.724 o
6 10 4 0.587 0.244 2.623 1294.410 o
6 10 5 99.708 97.190 4.569 39.379 o
6 10 6 97.672 107.982 4.898 38.050 o
6 10 7 87.878 88.591 6.366 40.737 o
6 10 8 87.757 103.658 5.235 40.766 o
6 10 9 14.139 19.559 3.654 210.212 o
6 10 10 38.646 39.837 3.894 98.525 o
6 10 11 72.816 67.015 4.455 54.911 o
6 10 12 196.129 207.203 9.474 16.459 o
6 11 0 110.614 110.926 6.179 33.119 o
6 11 1 1.663 -1.098 3.276 778.557 o
6 11 2 66.307 63.489 4.559 58.993 o
6 11 3 15.679 11.649 2.541 268.133 o
6 11 4 136.924 116.606 6.672 27.732 o
6 11 5 479.770 501.927 15.139 5.484 o
6 11 6 164.440 180.587 11.474 17.910 o
6 11 7 219.701 195.004 11.358 14.662 o
6 11 8 264.565 279.679 13.116 10.939 o
6 11 9 582.417 470.223 18.000 4.585 o
6 12 0 103.782 98.188 4.513 38.258 o
6 12 1 35.157 26.475 2.635 128.383 o
6 12 2 38.024 32.403 4.091 103.778 o
6 12 3 336.783 346.315 15.659 8.083 o
6 12 4 249.634 250.120 9.435 13.046 o
6 12 5 600.621 495.792 18.442 4.357 o
7 -18 0 179.845 126.562 6.429 22.343 o
7 -18 1 32.706 25.717 3.143 130.781 o
7 -18 2 5.895 3.816 2.283 616.389 o
7 -18 3 107.157 68.009 4.438 41.585 o
7 -18 4 49.886 33.993 3.237 91.061 o
7 -18 5 18.559 10.754 2.212 254.245 o
7 -17 0 638.057 689.737 18.980 3.617 o
7 -17 1 31.212 38.357 3.361 117.394 o
7 -17 2 2445.480 2442.460 52.378 0.453 o
7 -17 3 665.642 642.651 28.102 3.126 o
7 -17 4 1000.120 1078.920 45.435 1.492 o
7 -17 5 263.246 283.557 6.509 12.676 o
7 -17 6 83.387 80.451 3.140 49.732 o
7 -17 7 288.925 289.662 12.571 10.330 o
7 -17 8 8.299 11.473 1.965 418.651 o
7 -17 9 905.457 749.474 58.344 1.456 o
7 -17 12 1879.080 1437.810 47.584 0.768 o
7 -17 13 18.154 17.908 2.671 216.480 o
7 -17 14 262.933 90.906 4.871 17.829 o
7 -16 0 0.973 4.210 2.441 981.021 o
7 -16 1 62.357 68.972 4.452 60.020 o
7 -16 2 49.285 61.307 5.040 68.995 o
7 -16 3 20.713 19.959 3.116 185.143 o
7 -16 4 305.252 322.162 9.210 10.270 o
7 -16 5 311.608 335.596 8.264 10.110 o
7 -16 6 74.956 85.754 3.969 50.720 o
7 -16 7 211.111 237.812 6.502 16.019 o
7 -16 8 50.457 48.456 2.646 84.281 o
7 -16 9 610.180 603.939 11.739 4.337 o
7 -16 10 315.856 324.136 8.759 10.063 o
7 -16 11 20.618 17.180 2.395 208.643 o
7 -16 12 99.568 95.722 5.296 38.545 o
7 -16 13 1625.580 1409.370 75.909 0.682 o
7 -16 14 134.783 150.148 18.654 14.620 o
7 -16 15 581.149 455.940 12.350 5.032 o
7 -16 16 38.753 27.299 2.161 122.278 o
7 -16 17 2.973 2.679 1.989 1000.050 o
7 -15 0 50.085 72.609 3.917 68.781 o
7 -15 1 58.216 65.556 4.094 64.865 o
7 -15 2 131.209 120.865 5.194 29.681 o
7 -15 3 340.420 327.846 9.964 9.254 o
7 -15 4 30.000 41.176 3.445 116.219 o
7 -15 5 83.074 100.602 4.993 43.050 o
7 -15 6 34.620 56.065 3.248 96.795 o
7 -15 7 42.129 48.063 3.152 92.454 o
7 -15 8 1702.330 1780.420 27.911 0.867 o
7 -15 9 718.216 750.181 13.387 3.348 o
7 -15 10 302.509 321.514 7.151 10.713 o
7 -15 11 300.480 287.445 10.481 10.577 o
7 -15 12 26.470 32.858 2.849 141.413 o
7 -15 13 40.658 33.348 2.741 108.548 o
7 -15 14 845.392 733.641 37.880 2.141 o
7 -15 15 216.566 189.087 7.234 16.822 o
7 -15 16 7.814 12.384 2.220 401.812 o
7 -15 17 305.682 323.562 9.476 10.191 o
7 -15 18 61.568 59.136 3.593 66.385 o
7 -15 19 331.594 307.049 8.328 9.960 o
7 -15 20 13.357 7.509 2.409 330.630 o
7 -14 0 129.259 99.363 4.800 32.250 o
7 -14 1 4602.100 5053.670 67.728 0.147 o
7 -14 2 139.732 138.142 5.767 26.693 o
7 -14 3 60.256 57.571 4.126 66.101 o
7 -14 4 264.534 326.812 8.069 11.578 o
7 -14 5 45.316 42.390 3.409 90.617 o
7 -14 6 672.311 712.635 13.583 3.630 o
7 -14 7 3624.220 3697.070 54.880 0.236 o
7 -14 8 662.424 693.878 14.853 3.674 o
7 -14 9 255.607 250.311 7.846 13.278 o
7 -14 10 3399.460 3297.590 55.179 0.270 o
7 -14 11 30.748 31.045 2.993 130.485 o
7 -14 12 1652.410 1662.860 29.144 0.921 o
7 -14 13 86.427 100.613 4.995 42.012 o
7 -14 14 2071.090 1971.900 43.836 0.622 o
7 -14 15 1119.310 1129.180 20.577 1.726 o
7 -14 16 11.965 14.891 2.438 296.418 o
7 -14 17 48.864 67.235 3.222 74.458 o
7 -14 18 30.051 23.848 2.235 150.889 o
7 -14 19 5.916 9.165 1.712 559.587 o
7 -14 20 908.245 878.695 23.359 2.294 o
7 -14 21 2.725 4.845 1.858 934.494 o
7 -14 22 31.429 24.675 3.026 136.911 o
7 -13 0 25.021 28.616 3.703 141.227 o
7 -13 1 2932.410 2805.920 64.484 0.333 o
7 -13 2 165.456 156.556 11.084 18.926 o
7 -13 3 332.892 325.157 11.113 9.239 o
7 -13 4 200.572 234.463 8.119 16.085 o
7 -13 5 1215.390 1465.150 23.439 1.369 o
7 -13 6 24.047 33.242 3.026 146.258 o
7 -13 7 68.609 78.312 3.706 56.018 o
7 -13 8 1365.520 1359.560 18.665 1.307 o
7 -13 9 589.982 588.438 9.979 4.596 o
7 -13 10 302.413 385.414 8.237 9.736 o
7 -13 11 401.199 382.658 8.950 7.758 o
7 -13 12 30.830 59.648 3.729 96.624 o
7 -13 13 967.365 1078.660 20.668 2.021 o
7 -13 14 667.280 702.457 17.037 3.543 o
7 -13 15 14.272 26.067 5.224 151.129 o
7 -13 16 329.828 385.083 10.866 8.741 o
7 -13 17 41.010 34.732 3.744 99.919 o
7 -13 18 2306.930 2480.290 48.757 0.485 o
7 -13 19 736.749 808.326 17.735 3.032 o
7 -13 20 848.575 917.575 19.313 2.487 o
7 -13 21 214.273 204.713 7.686 16.326 o
7 -13 22 7.625 11.127 1.851 449.746 o
7 -13 23 22.012 25.670 2.628 174.059 o
7 -13 24 124.486 122.674 6.207 29.619 o
7 -12 0 756.335 878.407 29.952 2.451 o
7 -12 1 1430.520 1415.030 41.327 1.050 o
7 -12 2 716.847 821.703 16.197 3.128 o
7 -12 3 136.280 170.030 6.201 24.808 o
7 -12 4 943.847 1050.230 27.508 1.961 o
7 -12 5 2697.690 2957.150 53.486 0.369 o
7 -12 6 336.752 291.045 14.785 8.750 o
7 -12 7 100.430 97.323 8.951 31.930 o
7 -12 8 287.597 308.641 9.035 10.959 o
7 -12 9 21.062 40.002 3.488 139.077 o
7 -12 10 1147.400 1170.430 20.418 1.658 o
7 -12 11 1779.180 1915.260 35.884 0.767 o
7 -12 12 967.949 1027.020 18.314 2.108 o
7 -12 13 632.825 669.171 14.627 3.894 o
7 -12 14 1290.990 1409.720 26.045 1.300 o
7 -12 15 154.928 204.929 7.975 20.117 o
7 -12 16 949.705 989.741 23.443 2.089 o
7 -12 17 309.175 339.580 8.922 10.009 o
7 -12 18 851.567 849.279 16.829 2.628 o
7 -12 19 2998.640 3110.850 59.880 0.314 o
7 -12 20 53.173 58.402 4.194 70.834 o
7 -12 21 387.224 388.139 16.545 6.905 o
7 -12 22 544.306 589.635 14.981 4.647 o
7 -12 23 258.353 240.718 10.763 12.475 o
7 -12 24 1750.620 1747.530 171.097 0.253 o
7 -12 25 6.777 9.241 1.968 497.819 o
7 -11 0 329.412 349.367 8.262 9.527 o
7 -11 1 1546.360 1746.610 37.364 0.911 o
7 -11 2 90.011 102.475 4.997 40.687 o
7 -11 3 2023.270 1878.640 33.714 0.686 o
7 -11 4 265.095 203.989 8.279 13.703 o
7 -11 5 1616.560 1655.840 35.472 0.909 o
7 -11 6 3139.000 3167.480 109.744 0.238 o
7 -11 7 262.476 288.196 9.186 11.998 o
7 -11 8 1117.840 1198.680 20.813 1.675 o
7 -11 9 62.335 38.209 3.337 74.972 o
7 -11 10 604.588 610.478 15.565 4.166 o
7 -11 11 417.309 371.897 9.572 7.525 o
7 -11 12 141.418 150.836 4.985 26.218 o
7 -11 13 296.544 256.326 7.822 11.732 o
7 -11 14 1.563 2.132 2.568 982.517 o
7 -11 15 281.090 296.951 8.869 11.354 o
7 -11 16 1128.120 1183.770 20.599 1.674 o
7 -11 17 137.674 140.489 5.258 27.210 o
7 -11 18 2.393 6.682 2.716 650.566 o
7 -11 19 1569.110 1688.100 27.121 0.972 o
7 -11 20 865.850 867.058 15.355 2.595 o
7 -11 21 235.460 238.247 6.999 14.633 o
7 -11 22 450.227 521.436 13.878 5.782 o
7 -11 23 565.165 636.412 14.550 4.381 o
7 -11 24 995.808 1103.410 27.750 1.827 o
7 -11 25 325.727 336.677 10.101 9.453 o
7 -11 26 0.546 3.843 1.723 1560.780 o
7 -10 0 2627.750 2814.680 39.701 0.409 o
7 -10 1 382.401 390.887 12.714 7.521 o
7 -10 2 3420.020 3337.950 56.039 0.266 o
7 -10 3 378.547 357.162 10.249 8.195 o
7 -10 4 2297.570 2242.060 45.202 0.522 o
7 -10 5 726.225 752.903 14.966 3.262 o
7 -10 6 104.045 111.985 5.777 34.891 o
7 -10 7 727.629 739.490 15.086 3.280 o
7 -10 8 7.683 5.939 3.006 415.692 o
7 -10 9 801.617 746.945 13.870 3.020 o
7 -10 10 3684.210 3755.190 45.767 0.235 o
7 -10 11 2153.740 2123.680 29.550 0.613 o
7 -10 12 0.779 2.313 2.722 1001.410 o
7 -10 13 24.900 27.775 4.093 137.050 o
7 -10 14 148.916 130.744 6.147 25.688 o
7 -10 15 51.932 53.715 4.211 73.733 o
7 -10 16 1094.230 1004.520 17.613 1.903 o
7 -10 17 1928.540 1807.130 29.513 0.750 o
7 -10 18 34.723 38.054 3.538 109.276 o
7 -10 19 232.900 233.655 6.722 14.944 o
7 -10 20 39.426 44.586 3.411 97.160 o
7 -10 21 1559.470 1674.970 26.735 0.984 o
7 -10 22 1.753 4.823 2.759 748.396 o
7 -10 23 99.089 115.369 5.072 36.574 o
7 -10 24 239.717 274.562 7.996 13.385 o
7 -10 25 22.926 13.651 4.444 160.200 o
7 -10 26 454.803 452.868 17.957 5.647 o
7 -10 27 122.602 120.020 5.192 31.200 o
7 -9 0 4075.990 4001.760 59.923 0.196 o
7 -9 1 345.445 314.563 8.316 9.549 o
7 -9 2 26.855 29.716 4.547 123.159 o
7 -9 3 1849.590 1775.600 27.296 0.799 o
7 -9 4 17.424 21.266 2.798 207.167 o
7 -9 5 5381.610 5315.780 76.371 0.117 o
7 -9 6 132.466 123.044 7.221 27.340 o
7 -9 7 190.348 192.267 5.597 19.102 o
7 -9 8 2092.930 2016.960 37.884 0.627 o
7 -9 9 781.543 721.553 13.469 3.151 o
7 -9 10 822.177 837.068 16.093 2.750 o
7 -9 11 5164.980 4939.770 62.372 0.131 o
7 -9 12 1578.320 1552.720 24.933 1.021 o
7 -9 13 48.266 64.327 4.357 71.714 o
7 -9 14 3706.350 3591.250 72.338 0.223 o
7 -9 15 1215.750 1098.570 21.316 1.604 o
7 -9 16 507.775 471.966 14.450 5.428 o
7 -9 17 48.530 38.665 3.613 87.825 o
7 -9 18 390.118 413.467 10.002 7.576 o
7 -9 19 85.070 90.352 5.263 43.537 o
7 -9 20 6.626 15.815 2.947 341.063 o
7 -9 21 65.908 66.563 3.908 60.246 o
7 -9 22 306.903 307.660 7.511 10.724 o
7 -9 23 19.663 29.106 3.281 165.892 o
7 -9 24 287.235 310.938 7.925 11.161 o
7 -9 25 48.504 50.045 3.255 83.097 o
7 -9 26 3.686 7.521 2.436 609.208 o
7 -9 27 56.389 60.216 3.712 69.428 o
7 -9 28 7.816 12.688 3.942 281.893 o
7 -8 0 1658.110 1712.500 26.168 0.917 o
7 -8 1 7176.700 7227.330 117.516 0.066 o
7 -8 2 4854.130 5109.200 94.354 0.130 o
7 -8 3 19919.700 19620.600 253.070 0.010 o
7 -8 4 4508.660 4804.660 63.077 0.156 o
7 -8 5 1292.580 1267.150 20.944 1.414 o
7 -8 6 7085.510 6942.500 96.599 0.071 o
7 -8 7 355.240 289.424 8.521 9.582 o
7 -8 8 14.709 20.546 2.986 223.199 o
7 -8 9 316.115 353.643 8.725 9.710 o
7 -8 10 335.996 363.143 9.313 9.080 o
7 -8 11 2602.020 2551.980 44.196 0.430 o
7 -8 12 8372.720 8144.960 103.725 0.052 o
7 -8 13 392.203 366.932 9.410 7.984 o
7 -8 14 3.826 9.726 3.248 440.405 o
7 -8 15 0.799 5.904 3.201 651.843 o
7 -8 16 522.282 477.105 15.513 5.195 o
7 -8 17 787.490 804.911 17.046 2.886 o
7 -8 18 1011.310 1128.630 20.497 1.900 o
7 -8 19 964.830 910.719 17.300 2.255 o
7 -8 20 574.075 556.982 12.091 4.720 o
7 -8 21 1940.690 2111.870 23.802 0.701 o
7 -8 22 38.539 46.556 3.596 95.843 o
7 -8 23 296.987 283.947 6.830 11.476 o
7 -8 24 16.688 21.247 2.695 214.498 o
7 -8 25 339.281 353.427 8.542 9.225 o
7 -8 26 87.880 72.509 3.141 49.516 o
7 -8 27 1223.250 1198.030 33.163 1.396 o
7 -8 28 49.126 32.570 2.693 95.807 o
7 -7 0 95.886 87.614 7.277 36.977 o
7 -7 1 532.419 593.540 18.698 4.459 o
7 -7 2 5292.570 5545.400 145.735 0.099 o
7 -7 3 1175.930 1115.410 30.568 1.529 o
7 -7 4 293.340 304.542 13.258 9.870 o
7 -7 5 95.906 63.647 5.975 42.873 o
7 -7 6 1.299 8.063 3.137 581.409 o
7 -7 7 5860.070 5437.140 85.671 0.103 o
7 -7 8 5.310 13.339 3.403 351.441 o
7 -7 9 62.657 55.607 4.785 62.775 o
7 -7 10 88.985 61.989 5.092 47.464 o
7 -7 11 285.252 254.384 9.435 11.746 o
7 -7 12 3607.730 3498.070 65.233 0.238 o
7 -7 13 1406.010 1439.390 32.022 1.139 o
7 -7 14 762.943 788.685 19.085 2.933 o
7 -7 15 1496.730 1433.450 29.678 1.091 o
7 -7 16 5.038 4.158 3.499 452.352 o
7 -7 17 1485.380 1575.090 30.239 1.045 o
7 -7 18 997.439 1031.060 24.358 1.946 o
7 -7 19 620.136 650.069 16.831 3.907 o
7 -7 20 234.496 257.268 10.134 13.255 o
7 -7 21 1512.110 1540.360 34.053 1.014 o
7 -7 22 130.085 120.380 4.876 30.185 o
7 -7 23 583.082 630.138 12.318 4.400 o
7 -7 24 1.976 1.941 1.421 1623.010 o
7 -7 25 27.522 18.444 2.849 162.681 o
7 -7 26 202.000 251.380 9.232 15.122 o
7 -7 27 172.272 180.575 5.100 21.253 o
7 -7 28 3.707 3.022 3.298 553.989 o
7 -6 0 3804.690 3917.470 83.788 0.200 o
7 -6 1 1500.150 1627.310 55.367 0.839 o
7 -6 2 1140.120 1208.180 45.559 1.297 o
7 -6 3 3096.600 2968.420 87.005 0.278 o
7 -6 4 653.991 665.801 31.275 2.956 o
7 -6 5 99.320 143.981 6.756 31.395 o
7 -6 6 54.154 63.658 4.666 66.216 o
7 -6 7 1808.060 1768.890 33.130 0.798 o
7 -6 8 3050.730 2632.620 45.118 0.353 o
7 -6 9 75.203 62.430 4.148 55.652 o
7 -6 10 630.813 624.833 12.151 4.131 o
7 -6 11 982.119 935.447 33.224 1.869 o
7 -6 12 990.155 941.444 16.968 2.172 o
7 -6 13 135.295 128.908 6.199 27.553 o
7 -6 14 1588.400 1562.180 29.906 0.985 o
7 -6 15 911.970 936.053 20.537 2.284 o
7 -6 16 1193.970 1112.720 23.352 1.601 o
7 -6 17 4.712 5.383 3.596 431.202 o
7 -6 18 15.221 28.755 4.349 162.912 o
7 -6 19 215.999 194.469 7.815 16.463 o
7 -6 20 35.596 53.278 6.938 71.746 o
7 -6 21 615.379 614.606 21.301 3.774 o
7 -6 22 171.019 181.735 9.380 18.877 o
7 -6 23 61.322 57.753 4.226 64.951 o
7 -6 24 700.559 719.381 13.466 3.488 o
7 -6 25 174.360 195.173 4.941 20.510 o
7 -6 26 2.278 2.892 1.905 1130.780 o
7 -6 27 1268.700 1313.860 43.834 1.174 o
7 -6 28 545.789 534.418 12.038 5.020 o
7 -6 29 273.263 227.502 15.804 10.516 o
7 -5 0 325.152 301.536 25.285 6.500 o
7 -5 1 7793.200 8115.670 199.795 0.049 o
7 -5 2 4.546 18.487 7.585 131.639 o
7 -5 3 71.213 70.402 13.331 29.721 o
7 -5 4 1048.420 1146.160 43.653 1.442 o
7 -5 5 98.801 125.268 13.662 22.790 o
7 -5 6 671.408 681.691 25.720 3.162 o
7 -5 7 155.740 143.429 6.692 23.757 o
7 -5 8 1297.010 1275.180 25.965 1.361 o
7 -5 9 4468.370 4222.900 55.081 0.173 o
7 -5 10 2.810 2.916 2.090 967.189 o
7 -5 11 534.380 567.911 12.827 4.932 o
7 -5 12 453.196 428.886 12.814 6.339 o
7 -5 13 14.974 14.436 4.313 199.341 o
7 -5 14 4596.330 4536.180 128.992 0.132 o
7 -5 15 0.669 2.447 4.509 443.586 o
7 -5 16 695.226 688.791 19.554 3.347 o
7 -5 17 2308.330 2246.900 44.653 0.520 o
7 -5 18 0.059 -0.122 3.636 769.372 o
7 -5 19 1002.590 1008.220 20.710 2.020 o
7 -5 20 1294.580 1247.730 29.332 1.343 o
7 -5 21 518.114 521.240 15.611 5.045 o
7 -5 22 965.075 1008.060 34.939 1.801 o
7 -5 23 20.449 24.903 4.405 149.780 o
7 -5 24 51.699 44.200 4.769 75.393 o
7 -5 25 386.722 360.303 7.687 8.328 o
7 -5 26 51.632 60.060 3.035 75.839 o
7 -5 27 59.800 52.546 3.651 69.969 o
7 -5 28 305.415 321.197 8.181 10.467 o
7 -5 29 1010.530 873.027 29.321 1.960 o
7 -4 0 40.291 33.496 15.315 31.903 o
7 -4 1 172.466 176.841 21.331 11.283 o
7 -4 2 10694.700 11320.900 381.039 0.022 o
7 -4 3 152.766 155.387 37.163 5.774 o
7 -4 4 2429.820 2420.790 54.382 0.454 o
7 -4 5 2459.860 2660.220 58.915 0.418 o
7 -4 6 113.834 86.172 6.445 34.588 o
7 -4 7 25603.800 25378.300 359.133 0.006 o
7 -4 8 515.451 555.232 17.891 4.760 o
7 -4 9 492.280 375.725 7.790 6.614 o
7 -4 10 1544.450 1541.030 23.800 1.054 o
7 -4 11 60.955 68.810 3.936 62.507 o
7 -4 12 2807.400 2633.030 40.519 0.394 o
7 -4 13 657.474 573.627 14.472 4.025 o
7 -4 14 1266.650 1224.410 30.027 1.376 o
7 -4 15 3098.180 2972.780 57.748 0.313 o
7 -4 16 4562.740 4477.250 82.606 0.154 o
7 -4 17 2844.920 2798.660 56.427 0.355 o
7 -4 18 503.179 465.173 16.974 5.274 o
7 -4 19 1574.490 1497.440 35.723 0.977 o
7 -4 20 1369.510 1306.340 78.448 0.758 o
7 -4 21 1360.710 1271.930 53.461 1.017 o
7 -4 22 920.629 926.138 22.853 2.226 o
7 -4 23 1185.020 1184.580 22.601 1.574 o
7 -4 24 358.506 358.188 9.806 8.611 o
7 -4 25 48.012 67.333 3.168 75.364 o
7 -4 26 109.160 103.444 3.463 37.425 o
7 -4 27 610.435 582.311 11.444 4.417 o
7 -4 28 70.590 61.727 2.720 61.735 o
7 -4 29 22.929 14.816 1.856 211.127 o
7 -3 0 18501.000 17655.800 327.738 0.011 o
7 -3 1 772.836 720.578 21.447 2.932 o
7 -3 2 1.055 2.414 4.197 489.672 o
7 -3 3 2188.870 2146.690 57.202 0.525 o
7 -3 4 15.369 33.269 5.371 133.953 o
7 -3 5 7098.960 7041.340 165.281 0.062 o
7 -3 6 4876.530 5263.660 105.088 0.124 o
7 -3 7 2418.040 2575.380 56.222 0.438 o
7 -3 8 11641.900 10947.300 210.691 0.027 o
7 -3 9 459.102 415.152 8.277 6.751 o
7 -3 10 1.108 3.859 2.458 978.564 o
7 -3 11 16.914 28.372 3.406 177.115 o
7 -3 12 252.816 240.528 9.524 13.079 o
7 -3 13 848.259 833.358 16.623 2.665 o
7 -3 14 225.761 212.773 8.019 15.378 o
7 -3 15 877.520 838.982 17.044 2.566 o
7 -3 16 215.243 205.970 7.409 16.345 o
7 -3 17 727.830 663.253 17.095 3.365 o
7 -3 18 688.866 648.515 15.494 3.631 o
7 -3 19 1.101 2.254 3.774 585.431 o
7 -3 20 293.133 283.530 13.163 10.146 o
7 -3 21 331.484 290.338 13.194 9.210 o
7 -3 22 1267.310 1259.100 27.976 1.379 o
7 -3 23 665.181 679.240 16.931 3.610 o
7 -3 24 10.573 10.022 2.869 328.964 o
7 -3 25 626.060 620.410 11.489 4.199 o
7 -3 26 19.456 17.116 2.078 223.320 o
7 -3 27 561.207 549.911 15.722 4.619 o
7 -3 28 30.075 30.811 2.401 138.273 o
7 -3 29 24.413 12.461 2.219 202.989 o
7 -2 0 0.121 3.253 3.220 793.237 o
7 -2 1 984.691 1376.650 34.608 1.540 o
7 -2 2 154.443 154.991 8.543 21.882 o
7 -2 3 404.830 507.946 16.874 5.987 o
7 -2 4 3929.360 3768.530 86.576 0.195 o
7 -2 5 4330.290 4370.420 83.084 0.165 o
7 -2 6 463.984 419.607 13.241 6.228 o
7 -2 7 205.976 191.802 11.833 15.127 o
7 -2 8 411.795 393.477 12.941 7.056 o
7 -2 9 599.566 500.420 12.762 4.704 o
7 -2 10 225.361 245.775 10.001 13.898 o
7 -2 11 1435.730 1318.420 27.064 1.202 o
7 -2 12 399.912 359.258 12.400 7.539 o
7 -2 13 2595.010 2432.840 40.266 0.448 o
7 -2 14 13.773 19.495 3.597 214.673 o
7 -2 15 988.740 901.610 18.430 2.193 o
7 -2 16 2100.920 1943.200 39.915 0.630 o
7 -2 17 539.188 525.647 11.997 5.111 o
7 -2 18 27.244 24.479 3.534 143.176 o
7 -2 19 5.859 4.707 3.174 463.829 o
7 -2 20 818.413 832.090 21.154 2.635 o
7 -2 21 37.297 37.568 4.628 96.351 o
7 -2 22 197.002 186.602 8.412 17.551 o
7 -2 23 1602.520 1588.710 30.258 0.966 o
7 -2 24 19.741 26.376 2.448 186.209 o
7 -2 25 1147.160 1156.090 18.913 1.685 o
7 -2 26 129.535 136.423 5.229 28.700 o
7 -2 27 0.598 0.760 2.362 1461.970 o
7 -2 28 46.425 43.068 2.716 92.193 o
7 -1 0 54.568 94.535 6.047 52.330 o
7 -1 1 185.898 289.050 13.030 13.339 o
7 -1 2 794.865 763.906 21.574 2.790 o
7 -1 3 237.186 241.882 10.555 13.297 o
7 -1 4 175.608 171.916 11.968 17.151 o
7 -1 5 514.220 562.999 22.341 4.378 o
7 -1 6 658.259 637.703 31.111 2.995 o
7 -1 7 1684.640 1471.720 47.679 0.845 o
7 -1 8 55.742 51.162 3.815 73.240 o
7 -1 9 131.097 139.931 5.788 27.736 o
7 -1 10 2410.050 2356.350 43.637 0.487 o
7 -1 11 6997.460 6650.510 119.554 0.071 o
7 -1 12 860.122 816.211 17.844 2.627 o
7 -1 13 1360.610 1270.210 22.335 1.330 o
7 -1 14 2353.600 2215.060 34.942 0.534 o
7 -1 15 37.124 44.148 4.568 92.554 o
7 -1 16 523.051 504.294 14.326 5.171 o
7 -1 17 95.890 83.126 4.632 42.401 o
7 -1 18 121.527 137.409 5.360 29.758 o
7 -1 19 0.688 2.995 2.750 953.181 o
7 -1 20 85.457 109.985 4.795 41.242 o
7 -1 21 0.787 1.108 2.763 1068.340 o
7 -1 22 426.431 445.235 9.493 6.883 o
7 -1 23 256.669 284.222 7.821 12.609 o
7 -1 24 19.360 16.633 2.299 221.117 o
7 -1 25 138.619 141.666 4.806 27.329 o
7 -1 26 849.299 900.320 16.325 2.574 o
7 -1 27 737.535 692.124 18.036 3.233 o
7 -1 28 214.364 163.759 7.347 17.684 o
7 0 0 253.010 400.421 20.038 7.989 o
7 0 1 67.418 51.020 7.215 52.146 o
7 0 2 575.326 534.520 35.566 3.145 o
7 0 3 626.145 767.337 26.528 3.130 o
7 0 4 4884.310 5059.510 90.648 0.131 o
7 0 5 742.046 676.790 15.822 3.324 o
7 0 6 911.209 992.500 21.617 2.202 o
7 0 7 3.099 16.814 3.743 331.712 o
7 0 8 10980.500 10398.500 139.570 0.031 o
7 0 9 758.860 798.595 15.220 3.045 o
7 0 10 2389.030 2255.440 39.012 0.512 o
7 0 11 505.233 515.087 13.410 5.344 o
7 0 12 285.914 262.007 9.879 11.494 o
7 0 13 70.212 82.720 4.883 51.370 o
7 0 14 76.058 69.245 4.236 53.352 o
7 0 15 2012.870 1998.720 28.705 0.683 o
7 0 16 2269.740 2181.750 33.221 0.563 o
7 0 17 27.462 30.067 3.562 134.097 o
7 0 18 12.345 12.960 3.059 276.110 o
7 0 19 12.593 10.389 2.597 311.040 o
7 0 20 21.741 23.012 3.445 166.908 o
7 0 21 1589.530 1587.480 28.484 0.984 o
7 0 22 235.025 241.961 6.288 14.766 o
7 0 23 1927.780 1994.740 45.230 0.659 o
7 0 24 852.925 874.583 19.375 2.530 o
7 0 25 120.518 116.795 4.771 32.283 o
7 0 26 31.035 27.090 2.993 134.997 o
7 0 27 196.224 178.657 11.458 16.148 o
7 1 0 1682.890 1619.990 51.714 0.787 o
7 1 1 14030.200 13248.400 452.504 0.015 o
7 1 2 197.254 186.441 5.955 18.670 o
7 1 3 178.206 161.739 7.473 20.292 o
7 1 4 5557.270 5304.510 77.560 0.113 o
7 1 5 19.805 17.882 2.629 206.624 o
7 1 6 8104.940 8085.960 140.593 0.052 o
7 1 7 1266.690 1327.100 23.741 1.385 o
7 1 8 5228.470 4998.010 88.397 0.123 o
7 1 9 4123.040 3987.780 69.211 0.189 o
7 1 10 893.186 885.790 32.507 2.079 o
7 1 11 40.567 53.966 6.005 73.611 o
7 1 12 240.279 259.031 12.543 12.159 o
7 1 13 135.625 139.309 6.434 26.593 o
7 1 14 1833.190 1789.340 31.954 0.786 o
7 1 15 2.321 4.518 3.382 565.324 o
7 1 16 276.875 287.024 9.234 11.548 o
7 1 17 1164.260 1160.970 40.941 1.366 o
7 1 18 64.000 62.144 7.002 52.011 o
7 1 19 509.986 490.599 18.520 4.980 o
7 1 20 18.241 14.865 3.256 210.685 o
7 1 21 388.961 414.619 10.589 7.517 o
7 1 22 48.917 36.308 2.772 93.129 o
7 1 23 5.128 5.983 2.147 621.483 o
7 1 24 21.872 30.743 2.327 167.847 o
7 1 25 98.436 98.964 7.265 35.158 o
7 1 26 320.758 280.965 11.769 9.863 o
7 2 0 1663.910 1728.510 27.946 0.902 o
7 2 1 405.679 382.583 6.906 7.879 o
7 2 2 4691.780 4557.220 72.582 0.151 o
7 2 3 100.925 98.144 3.925 39.757 o
7 2 4 324.601 363.551 8.568 9.431 o
7 2 5 985.188 905.004 17.632 2.211 o
7 2 6 2012.370 1954.410 34.457 0.674 o
7 2 7 68.341 90.952 3.544 53.371 o
7 2 8 2193.870 2022.870 36.931 0.598 o
7 2 9 1584.680 1377.740 27.015 1.065 o
7 2 10 765.224 809.492 19.398 2.881 o
7 2 11 2359.630 2453.050 54.315 0.464 o
7 2 12 711.357 670.698 20.396 3.282 o
7 2 13 2718.670 2567.990 43.015 0.410 o
7 2 14 3.232 6.297 3.253 514.658 o
7 2 15 58.496 46.048 3.981 72.402 o
7 2 16 18.559 22.474 4.392 161.193 o
7 2 17 36.312 28.922 4.436 106.433 o
7 2 18 508.974 519.553 21.081 4.656 o
7 2 19 289.348 302.987 13.287 9.973 o
7 2 20 53.139 66.392 3.631 69.833 o
7 2 21 34.594 44.331 3.307 105.721 o
7 2 22 2.852 -0.865 2.068 1215.120 o
7 2 23 245.777 262.694 8.925 13.111 o
7 2 24 28.482 33.175 5.616 103.223 o
7 2 25 33.672 27.162 3.285 125.125 o
7 3 0 7775.030 7836.490 115.998 0.057 o
7 3 1 356.822 346.995 6.370 9.187 o
7 3 2 1699.070 1727.540 19.323 0.915 o
7 3 3 4.271 4.905 2.099 720.134 o
7 3 4 1439.220 1412.730 27.113 1.161 o
7 3 5 1119.760 1071.270 22.005 1.751 o
7 3 6 853.849 839.734 20.965 2.533 o
7 3 7 39.859 26.927 3.954 106.491 o
7 3 8 881.037 869.216 21.604 2.411 o
7 3 9 10.561 17.830 3.640 244.119 o
7 3 10 2470.280 2261.640 87.611 0.380 o
7 3 11 381.750 337.265 13.130 7.883 o
7 3 12 310.182 272.725 11.031 10.389 o
7 3 13 2569.330 2579.480 56.421 0.412 o
7 3 14 177.918 172.407 6.315 20.527 o
7 3 15 11.493 19.151 3.559 234.070 o
7 3 16 2003.130 2029.030 43.042 0.637 o
7 3 17 100.224 103.310 6.345 35.833 o
7 3 18 632.960 653.591 19.109 3.718 o
7 3 19 0.042 -0.612 2.888 1218.250 o
7 3 20 8.132 7.430 2.392 443.683 o
7 3 21 385.273 379.889 14.690 7.269 o
7 3 22 74.395 85.581 4.049 50.836 o
7 3 23 126.022 134.967 8.913 25.539 o
7 3 24 1.998 2.475 1.481 1483.380 o
7 4 0 3754.150 3629.140 46.107 0.234 o
7 4 1 13742.800 13490.500 231.986 0.019 o
7 4 2 229.807 264.444 10.268 13.250 o
7 4 3 58.132 48.600 4.361 70.096 o
7 4 4 27.194 31.814 3.415 134.263 o
7 4 5 3.046 6.653 3.043 551.667 o
7 4 6 963.195 988.559 18.456 2.155 o
7 4 7 4528.420 4406.550 116.422 0.142 o
7 4 8 1539.330 1528.410 66.989 0.755 o
7 4 9 338.902 324.322 29.142 5.540 o
7 4 10 0.328 0.858 3.844 644.700 o
7 4 11 43.526 45.325 5.457 78.375 o
7 4 12 214.856 200.421 11.416 14.730 o
7 4 13 749.039 747.140 23.745 2.880 o
7 4 14 1908.610 1866.970 49.934 0.667 o
7 4 15 331.482 307.885 8.992 9.842 o
7 4 16 26.334 37.174 3.646 126.852 o
7 4 17 462.806 493.771 11.416 6.005 o
7 4 18 946.890 959.059 30.614 1.967 o
7 4 19 12.361 15.540 3.729 234.941 o
7 4 20 23.151 16.885 2.878 185.343 o
7 4 21 166.666 174.847 5.746 21.704 o
7 4 22 97.198 102.262 4.289 39.751 o
7 4 23 12.003 16.225 2.571 282.365 o
7 5 0 795.383 757.792 11.489 3.078 o
7 5 1 8504.060 8218.430 89.159 0.052 o
7 5 2 6912.810 6811.360 80.294 0.075 o
7 5 3 501.669 482.065 11.249 5.686 o
7 5 4 3504.250 3500.250 46.284 0.259 o
7 5 5 12.771 13.297 3.323 258.213 o
7 5 6 224.612 230.047 7.827 15.078 o
7 5 7 2278.220 2265.780 37.419 0.541 o
7 5 8 85.719 94.288 5.888 41.506 o
7 5 9 966.286 909.617 20.035 2.204 o
7 5 10 5031.470 5081.270 115.500 0.119 o
7 5 11 555.486 585.711 14.135 4.635 o
7 5 12 85.986 119.554 6.968 36.156 o
7 5 13 316.047 305.756 9.196 10.208 o
7 5 14 523.249 564.467 13.973 4.957 o
7 5 15 772.857 743.257 19.680 2.956 o
7 5 16 9.008 11.022 3.093 331.565 o
7 5 17 844.640 912.596 71.697 1.156 o
7 5 18 642.457 724.069 31.548 2.889 o
7 5 19 106.357 122.662 5.510 33.652 o
7 5 20 368.319 349.298 10.697 8.383 o
7 5 21 149.024 131.453 12.007 20.240 o
7 6 0 358.684 355.928 7.375 8.944 o
7 6 1 97.196 105.520 4.969 38.384 o
7 6 2 4249.690 4587.550 55.770 0.174 o
7 6 3 6647.130 6750.680 85.217 0.079 o
7 6 4 147.569 152.182 6.527 24.295 o
7 6 5 413.892 421.602 8.779 7.284 o
7 6 6 1651.710 1708.680 24.516 0.929 o
7 6 7 13.569 15.039 3.383 240.605 o
7 6 8 977.658 1043.920 21.991 2.011 o
7 6 9 790.053 796.690 17.677 2.873 o
7 6 10 51.394 54.443 5.215 69.162 o
7 6 11 378.580 428.613 10.928 7.528 o
7 6 12 69.849 74.682 4.338 54.783 o
7 6 13 241.208 239.384 10.266 13.294 o
7 6 14 46.687 40.920 3.909 87.014 o
7 6 15 77.856 70.088 9.397 38.485 o
7 6 16 395.788 418.460 13.807 6.991 o
7 6 17 213.596 230.475 8.956 15.179 o
7 6 18 86.477 88.797 5.197 43.464 o
7 6 19 8.143 2.059 2.063 579.420 o
7 7 0 45.605 38.819 3.074 94.426 o
7 7 1 177.692 183.009 5.235 20.617 o
7 7 2 22.161 19.558 2.709 186.754 o
7 7 3 138.723 153.982 5.198 26.217 o
7 7 4 72.023 59.217 3.708 59.356 o
7 7 5 47.947 48.425 3.366 84.100 o
7 7 6 64.481 62.194 4.057 62.005 o
7 7 7 67.103 66.965 4.554 57.605 o
7 7 8 4.100 1.651 3.392 547.990 o
7 7 9 297.267 312.800 10.104 10.414 o
7 7 10 378.801 403.175 15.039 7.146 o
7 7 11 86.752 85.750 17.948 19.371 o
7 7 12 729.222 723.648 20.734 3.103 o
7 7 13 360.393 361.592 11.830 8.242 o
7 7 14 1204.730 1156.090 162.412 0.316 o
7 7 15 375.646 309.090 71.138 1.669 o
7 7 16 7.346 12.429 3.147 343.625 o
7 7 17 203.489 161.779 7.602 18.345 o
7 7 18 3.067 1.595 1.336 1381.190 o
7 8 0 51.362 57.771 3.908 73.783 o
7 8 1 622.847 631.510 11.499 4.185 o
7 8 2 2.718 5.079 2.670 692.133 o
7 8 3 287.728 310.905 7.337 11.257 o
7 8 4 4160.120 4241.170 53.815 0.187 o
7 8 5 167.007 164.181 5.383 22.368 o
7 8 6 158.674 148.243 5.740 23.836 o
7 8 7 1.821 5.693 3.025 641.850 o
7 8 8 56.291 51.133 3.968 72.177 o
7 8 9 27.649 27.197 5.070 117.082 o
7 8 10 858.205 995.279 27.519 2.173 o
7 8 11 104.064 119.100 5.225 34.847 o
7 8 12 112.698 87.759 9.599 29.591 o
7 8 13 47.801 45.742 5.990 71.150 o
7 8 14 8.549 7.196 3.888 311.051 o
7 9 0 97.242 88.898 4.125 41.883 o
7 9 1 420.836 448.189 10.753 6.819 o
7 9 2 918.917 944.731 17.719 2.314 o
7 9 3 242.488 272.431 7.585 13.430 o
7 9 4 30.218 31.074 3.181 129.891 o
7 9 5 8.779 8.852 2.348 411.543 o
7 9 6 0.159 0.027 3.948 646.378 o
7 9 7 40.209 42.023 3.943 94.367 o
7 9 8 148.874 144.841 6.960 24.222 o
7 9 9 108.492 130.005 4.499 33.603 o
7 9 10 848.512 843.063 17.529 2.630 o
7 9 11 450.551 474.570 32.619 3.978 o
7 9 12 101.728 103.899 4.343 38.269 o
7 10 0 9.495 12.634 3.334 298.051 o
7 10 1 27.603 26.236 3.233 143.446 o
7 10 2 224.583 238.414 6.909 15.177 o
7 10 3 425.691 430.886 14.725 6.432 o
7 10 4 587.608 535.750 37.403 2.983 o
7 10 5 150.518 168.598 7.548 22.378 o
7 10 6 473.622 492.307 14.870 5.607 o
7 10 7 438.995 429.002 10.261 6.756 o
7 10 8 9.403 10.448 1.791 414.864 o
7 11 0 134.264 128.948 5.084 28.671 o
7 11 1 280.962 272.693 10.096 11.427 o
7 11 2 29.404 23.699 5.191 115.439 o
7 11 3 63.588 54.555 4.013 65.222 o
7 11 4 33.538 34.277 3.042 119.580 o
7 11 5 14.150 11.736 1.915 308.648 o
8 -18 0 0.587 4.858 1.996 1222.760 o
8 -18 1 36.732 27.223 2.887 121.626 o
8 -18 2 280.441 198.471 8.364 13.177 o
8 -17 0 520.690 527.513 17.076 4.886 o
8 -17 1 990.330 1025.470 26.055 1.931 o
8 -17 2 259.887 285.895 13.831 10.760 o
8 -17 3 162.659 174.433 7.737 20.888 o
8 -17 4 3176.960 3104.070 68.258 0.287 o
8 -17 5 59.499 75.490 3.061 63.672 o
8 -17 6 667.682 644.061 13.893 3.809 o
8 -17 7 708.091 682.987 21.643 3.217 o
8 -17 8 7.067 10.896 1.597 490.021 o
8 -17 9 1203.330 1067.010 100.925 0.641 o
8 -17 10 2.919 6.859 3.005 559.704 o
8 -17 11 43.670 33.578 3.654 97.420 o
8 -17 12 100.761 73.189 4.378 42.837 o
8 -16 0 216.918 234.256 5.858 15.999 o
8 -16 1 0.183 6.880 2.603 849.722 o
8 -16 2 1040.920 1091.430 39.720 1.551 o
8 -16 3 172.528 170.232 7.423 20.438 o
8 -16 4 21.439 26.413 3.140 166.565 o
8 -16 5 327.018 320.448 7.767 9.996 o
8 -16 6 107.901 106.519 4.249 36.548 o
8 -16 7 1859.900 1948.080 33.041 0.738 o
8 -16 8 16.394 20.066 2.560 224.110 o
8 -16 9 3.612 6.330 1.598 822.601 o
8 -16 10 610.060 657.102 13.193 4.114 o
8 -16 11 373.797 399.860 8.943 8.071 o
8 -16 12 76.483 81.381 4.297 50.325 o
8 -16 13 208.059 149.414 5.517 19.413 o
8 -16 14 7.942 9.268 3.251 352.993 o
8 -16 15 968.272 741.822 25.308 2.264 o
8 -16 16 148.282 112.920 5.563 27.409 o
8 -15 0 147.517 149.895 5.057 25.464 o
8 -15 1 200.225 199.050 5.803 18.089 o
8 -15 2 98.422 104.317 4.743 38.540 o
8 -15 3 654.835 725.408 17.100 3.545 o
8 -15 4 26.899 29.234 2.763 146.716 o
8 -15 5 170.093 171.657 5.778 21.520 o
8 -15 6 1423.800 1484.140 23.807 1.166 o
8 -15 7 981.505 1071.440 17.962 2.043 o
8 -15 8 1280.000 1258.720 20.440 1.436 o
8 -15 9 13.481 29.389 2.698 208.719 o
8 -15 10 380.621 386.422 7.907 8.181 o
8 -15 11 659.222 668.523 13.136 3.819 o
8 -15 12 35.443 36.070 2.669 116.512 o
8 -15 13 431.031 464.800 12.936 6.375 o
8 -15 14 230.093 231.294 11.660 13.347 o
8 -15 15 391.090 359.816 44.627 3.227 o
8 -15 16 222.078 215.030 10.535 14.483 o
8 -15 17 43.506 36.187 2.978 99.963 o
8 -15 18 0.491 3.346 2.343 1185.020 o
8 -14 0 482.268 553.898 10.516 5.578 o
8 -14 1 16.947 23.067 2.991 200.044 o
8 -14 2 8.549 12.599 3.363 309.186 o
8 -14 3 9.759 13.365 3.453 283.690 o
8 -14 4 7729.420 7939.200 113.900 0.058 o
8 -14 5 25.680 37.321 3.452 130.541 o
8 -14 6 355.826 383.485 8.715 8.568 o
8 -14 7 660.113 662.128 12.619 3.850 o
8 -14 8 998.287 1022.690 19.875 2.028 o
8 -14 9 13.077 14.869 3.187 253.452 o
8 -14 10 1587.280 1599.030 28.527 0.981 o
8 -14 11 412.669 419.045 9.857 7.216 o
8 -14 12 0.457 4.766 2.929 805.181 o
8 -14 13 235.747 222.995 7.563 14.802 o
8 -14 14 643.968 677.836 18.987 3.616 o
8 -14 15 249.493 212.994 14.130 11.996 o
8 -14 16 122.052 113.825 5.670 31.346 o
8 -14 17 3.955 2.933 2.118 826.306 o
8 -14 18 177.741 185.462 5.490 20.398 o
8 -14 19 101.595 88.706 4.398 40.262 o
8 -14 20 122.195 114.308 6.916 29.848 o
8 -14 21 0.086 1.170 1.904 2225.300 o
8 -13 0 1633.230 1738.660 46.751 0.814 o
8 -13 1 2382.500 2280.430 37.587 0.514 o
8 -13 2 314.213 246.910 7.624 11.369 o
8 -13 3 413.821 356.643 13.915 7.149 o
8 -13 4 1.445 8.727 2.788 630.241 o
8 -13 5 483.430 579.889 13.342 5.259 o
8 -13 6 107.464 102.203 6.680 33.897 o
8 -13 7 1628.540 1594.660 26.162 0.969 o
8 -13 8 13.712 28.619 2.898 205.015 o
8 -13 9 410.378 459.498 10.740 6.883 o
8 -13 10 260.602 311.514 7.851 11.996 o
8 -13 11 46.384 64.384 3.840 75.547 o
8 -13 12 258.872 300.747 6.610 12.503 o
8 -13 13 1676.440 1712.080 30.551 0.887 o
8 -13 14 57.255 76.289 4.209 61.645 o
8 -13 15 144.925 135.830 5.904 26.061 o
8 -13 16 280.217 306.874 8.952 11.214 o
8 -13 17 2191.670 2255.700 44.012 0.549 o
8 -13 18 60.573 92.249 4.536 54.513 o
8 -13 19 1246.040 1258.810 24.609 1.436 o
8 -13 20 721.012 757.236 15.075 3.271 o
8 -13 21 103.171 93.461 3.662 40.094 o
8 -13 22 327.363 368.386 14.566 8.272 o
8 -12 0 158.374 110.315 8.406 23.811 o
8 -12 1 3.808 4.762 2.943 578.763 o
8 -12 2 2296.270 2285.920 45.245 0.517 o
8 -12 3 784.886 883.568 20.085 2.687 o
8 -12 4 29.768 33.628 3.706 122.289 o
8 -12 5 30.898 23.931 3.572 132.982 o
8 -12 6 933.887 1007.180 28.506 1.995 o
8 -12 7 43.993 49.442 5.040 78.581 o
8 -12 8 3579.130 3676.450 64.814 0.234 o
8 -12 9 302.057 316.770 9.163 10.431 o
8 -12 10 110.752 97.679 4.643 36.459 o
8 -12 11 3329.620 3552.000 53.458 0.266 o
8 -12 12 104.108 117.490 4.865 35.452 o
8 -12 13 4.942 5.917 3.164 474.981 o
8 -12 14 1.893 4.490 3.103 653.909 o
8 -12 15 795.590 800.947 19.000 2.811 o
8 -12 16 63.645 87.440 5.478 51.612 o
8 -12 17 192.752 214.017 9.757 16.315 o
8 -12 18 1396.360 1569.100 27.696 1.129 o
8 -12 19 680.384 715.833 19.928 3.336 o
8 -12 20 55.241 62.066 4.604 66.260 o
8 -12 21 273.143 350.208 10.860 10.385 o
8 -12 22 563.681 580.576 15.344 4.524 o
8 -12 23 638.754 604.958 21.533 3.673 o
8 -11 0 503.853 501.418 21.539 4.708 o
8 -11 1 670.383 618.750 25.064 3.316 o
8 -11 2 77.965 69.412 5.156 50.210 o
8 -11 3 610.459 624.089 23.882 3.619 o
8 -11 4 2056.820 2224.480 43.205 0.591 o
8 -11 5 2720.250 2712.920 56.305 0.379 o
8 -11 6 1300.870 1180.760 25.137 1.414 o
8 -11 7 148.427 157.173 7.650 23.067 o
8 -11 8 1093.440 1028.210 34.087 1.628 o
8 -11 9 175.106 209.298 9.373 17.694 o
8 -11 10 702.713 742.088 17.032 3.309 o
8 -11 11 4.514 10.163 3.077 435.630 o
8 -11 12 818.146 860.020 18.050 2.680 o
8 -11 13 505.656 544.173 11.545 5.344 o
8 -11 14 88.499 97.984 5.278 41.294 o
8 -11 15 3151.130 3312.540 64.571 0.284 o
8 -11 16 1.065 8.410 3.728 474.448 o
8 -11 17 1099.270 1144.350 35.312 1.530 o
8 -11 18 75.531 78.570 4.376 51.160 o
8 -11 19 706.398 757.934 15.280 3.322 o
8 -11 20 855.923 820.556 15.921 2.678 o
8 -11 21 272.003 297.345 8.604 11.687 o
8 -11 22 313.524 319.707 11.159 9.714 o
8 -11 23 592.622 580.283 15.561 4.328 o
8 -11 24 819.945 793.027 34.414 2.251 o
8 -11 25 210.699 171.136 5.831 18.315 o
8 -10 0 9401.520 9531.430 170.637 0.038 o
8 -10 1 3718.040 3764.950 55.803 0.227 o
8 -10 2 500.474 519.198 11.693 5.492 o
8 -10 3 1671.720 1476.660 25.214 0.984 o
8 -10 4 87.776 84.632 5.916 42.272 o
8 -10 5 3465.480 3590.350 48.892 0.256 o
8 -10 6 74.007 78.346 4.194 52.296 o
8 -10 7 2702.690 2660.840 35.683 0.415 o
8 -10 8 642.026 582.047 11.797 4.206 o
8 -10 9 682.639 685.938 13.162 3.658 o
8 -10 10 903.726 887.664 15.716 2.458 o
8 -10 11 93.882 114.500 4.323 38.956 o
8 -10 12 125.681 132.485 5.265 29.573 o
8 -10 13 1913.010 1931.620 39.348 0.697 o
8 -10 14 816.929 876.647 15.477 2.720 o
8 -10 15 2116.830 2042.450 41.070 0.607 o
8 -10 16 172.755 169.849 6.001 21.245 o
8 -10 17 927.390 949.022 17.250 2.298 o
8 -10 18 4.486 9.110 2.667 503.567 o
8 -10 19 740.873 798.228 13.430 3.161 o
8 -10 20 315.161 339.180 7.186 10.144 o
8 -10 21 520.932 517.138 12.937 5.236 o
8 -10 22 324.867 329.770 8.079 9.887 o
8 -10 23 152.810 151.478 4.780 24.901 o
8 -10 24 109.266 122.301 5.580 33.030 o
8 -10 25 439.496 416.567 25.514 5.007 o
8 -10 26 32.186 23.044 2.642 141.185 o
8 -9 0 5602.310 5672.320 80.130 0.107 o
8 -9 1 5607.230 5662.120 85.174 0.106 o
8 -9 2 2959.340 2830.420 46.677 0.351 o
8 -9 3 912.605 917.077 15.013 2.411 o
8 -9 4 602.523 614.713 12.363 4.323 o
8 -9 5 55.810 91.598 4.533 57.116 o
8 -9 6 5818.810 5868.690 76.988 0.101 o
8 -9 7 2248.950 2161.460 36.133 0.565 o
8 -9 8 1.662 7.289 2.946 623.794 o
8 -9 9 16.848 20.554 2.882 211.131 o
8 -9 10 2511.350 2440.230 32.783 0.476 o
8 -9 11 154.018 151.552 5.296 24.448 o
8 -9 12 0.451 2.510 2.639 1083.830 o
8 -9 13 976.639 939.237 16.267 2.214 o
8 -9 14 31.233 35.114 3.837 116.151 o
8 -9 15 7.491 24.148 4.396 212.628 o
8 -9 16 2591.780 2602.850 52.822 0.413 o
8 -9 17 540.278 488.308 14.268 5.101 o
8 -9 18 14.678 6.004 3.338 275.555 o
8 -9 19 7.140 3.091 2.880 487.766 o
8 -9 20 371.816 385.126 8.052 8.335 o
8 -9 21 410.709 412.546 9.075 7.369 o
8 -9 22 90.272 111.048 4.063 40.761 o
8 -9 23 151.580 165.957 4.781 24.210 o
8 -9 24 8.250 6.733 2.067 480.954 o
8 -9 25 45.648 47.645 2.944 89.213 o
8 -9 26 1232.800 1240.510 59.450 1.031 o
8 -8 0 2089.060 2027.240 31.476 0.644 o
8 -8 1 317.875 358.163 11.228 9.187 o
8 -8 2 4674.530 4706.300 116.256 0.133 o
8 -8 3 36.788 56.744 3.797 90.103 o
8 -8 4 13446.100 12823.300 164.701 0.021 o
8 -8 5 3400.970 3248.540 49.832 0.276 o
8 -8 6 281.340 276.440 8.503 11.746 o
8 -8 7 2942.050 2651.710 47.337 0.364 o
8 -8 8 123.607 109.911 6.500 30.472 o
8 -8 9 8556.030 8729.430 120.111 0.048 o
8 -8 10 676.234 622.646 16.470 3.711 o
8 -8 11 1728.760 1621.960 35.612 0.859 o
8 -8 12 631.651 597.615 17.349 3.957 o
8 -8 13 1498.690 1416.190 46.448 0.964 o
8 -8 14 1521.420 1431.190 43.668 0.970 o
8 -8 15 444.980 409.934 17.035 6.057 o
8 -8 16 226.034 254.245 9.538 13.864 o
8 -8 17 1554.460 1609.930 35.224 0.959 o
8 -8 18 11.559 13.261 4.324 225.163 o
8 -8 19 1895.890 1980.700 42.712 0.682 o
8 -8 20 8.311 10.870 3.367 324.980 o
8 -8 21 855.258 848.852 17.415 2.605 o
8 -8 22 74.562 72.052 4.137 53.628 o
8 -8 23 283.825 277.129 9.655 11.385 o
8 -8 24 1063.410 1063.470 22.535 1.837 o
8 -8 25 328.755 299.921 8.488 10.090 o
8 -8 26 3.593 4.235 3.402 514.406 o
8 -8 27 114.488 81.632 5.048 36.953 o
8 -7 0 1332.940 1237.490 22.843 1.371 o
8 -7 1 682.285 698.644 15.258 3.555 o
8 -7 2 2238.670 2110.150 36.386 0.574 o
8 -7 3 2074.730 2140.900 33.184 0.626 o
8 -7 4 15397.300 14702.700 177.183 0.016 o
8 -7 5 11745.100 11234.000 129.083 0.028 o
8 -7 6 10.292 28.229 3.192 221.263 o
8 -7 7 11.689 22.325 3.610 218.849 o
8 -7 8 1311.740 1207.730 22.353 1.413 o
8 -7 9 17.074 37.266 3.568 155.219 o
8 -7 10 17050.400 16309.300 197.682 0.013 o
8 -7 11 271.137 268.354 7.557 12.439 o
8 -7 12 8.325 7.479 2.883 393.941 o
8 -7 13 2157.460 2131.380 37.248 0.592 o
8 -7 14 1.825 11.980 3.822 393.405 o
8 -7 15 966.312 949.657 20.704 2.149 o
8 -7 16 113.266 125.315 7.125 30.142 o
8 -7 17 1088.190 1020.270 22.968 1.826 o
8 -7 18 118.682 133.617 7.317 28.435 o
8 -7 19 535.480 481.151 14.319 5.165 o
8 -7 20 2311.600 2378.630 75.139 0.427 o
8 -7 21 137.536 135.739 6.355 26.646 o
8 -7 22 181.847 184.321 6.997 19.392 o
8 -7 23 263.329 280.604 6.655 12.697 o
8 -7 24 17.434 18.413 2.306 228.687 o
8 -7 25 156.519 148.552 4.061 25.022 o
8 -7 26 87.571 109.657 5.366 39.763 o
8 -7 27 26.563 25.386 2.299 160.080 o
8 -6 0 13650.300 13607.300 219.095 0.019 o
8 -6 1 100.434 114.330 8.617 31.031 o
8 -6 2 7.336 15.881 3.022 324.325 o
8 -6 3 3618.780 3412.840 54.621 0.248 o
8 -6 4 253.424 239.390 6.902 13.839 o
8 -6 5 848.878 786.585 14.367 2.785 o
8 -6 6 11074.800 10376.100 112.516 0.032 o
8 -6 7 2816.940 2509.680 33.357 0.411 o
8 -6 8 2294.200 2204.690 29.856 0.560 o
8 -6 9 331.634 345.237 7.784 9.592 o
8 -6 10 1230.940 1192.140 18.290 1.553 o
8 -6 11 2.570 5.771 3.948 434.843 o
8 -6 12 394.987 397.212 12.580 7.309 o
8 -6 13 6.971 6.773 3.431 380.151 o
8 -6 14 189.418 178.863 7.643 18.706 o
8 -6 15 1882.250 1941.220 35.548 0.721 o
8 -6 16 360.784 336.231 10.662 8.649 o
8 -6 17 131.302 113.721 8.935 26.164 o
8 -6 18 1456.770 1444.590 56.720 0.890 o
8 -6 19 611.831 635.011 15.031 4.082 o
8 -6 20 109.053 116.211 6.103 33.010 o
8 -6 21 26.530 28.047 4.445 127.302 o
8 -6 22 316.033 294.032 9.864 10.225 o
8 -6 23 21.330 34.679 2.793 156.142 o
8 -6 24 86.130 75.477 2.977 49.867 o
8 -6 25 622.666 640.279 12.453 4.122 o
8 -6 26 0.253 -0.853 3.799 691.658 o
8 -6 27 181.057 157.732 7.755 20.053 o
8 -5 0 756.954 754.847 69.418 1.303 o
8 -5 1 12233.600 12070.500 411.234 0.018 o
8 -5 2 3914.390 3794.660 68.576 0.206 o
8 -5 3 10867.500 10988.200 134.207 0.031 o
8 -5 4 900.888 874.832 13.574 2.521 o
8 -5 5 726.530 671.796 10.123 3.575 o
8 -5 6 507.563 495.585 7.754 5.774 o
8 -5 7 1944.450 1928.880 23.281 0.736 o
8 -5 8 23.994 32.618 2.654 152.074 o
8 -5 9 2800.930 2704.750 33.266 0.397 o
8 -5 10 388.893 365.899 7.555 8.253 o
8 -5 11 96.637 93.481 4.424 40.956 o
8 -5 12 842.271 772.163 15.444 2.804 o
8 -5 13 55.427 56.576 6.357 60.385 o
8 -5 14 1681.940 1654.600 28.168 0.911 o
8 -5 15 1413.220 1328.690 23.785 1.242 o
8 -5 16 341.569 350.933 10.919 8.836 o
8 -5 17 407.497 402.751 16.346 6.598 o
8 -5 18 120.668 124.585 7.175 28.977 o
8 -5 19 1.846 6.100 3.862 464.278 o
8 -5 20 695.727 660.094 20.434 3.364 o
8 -5 21 350.495 308.792 10.396 9.170 o
8 -5 22 278.261 248.364 8.839 12.226 o
8 -5 23 0.494 0.489 2.072 1907.880 o
8 -5 24 73.672 60.696 2.561 60.476 o
8 -5 25 65.547 50.382 2.148 70.477 o
8 -5 26 147.662 156.034 4.444 25.438 o
8 -5 27 44.533 36.878 3.261 96.255 o
8 -4 0 1201.460 1292.370 28.225 1.429 o
8 -4 1 2834.220 3049.740 63.333 0.332 o
8 -4 2 33.775 50.047 5.227 87.922 o
8 -4 3 1504.450 1547.480 26.672 1.064 o
8 -4 4 441.827 444.464 8.531 6.765 o
8 -4 5 1367.910 1238.610 17.678 1.372 o
8 -4 6 1147.150 1137.120 17.881 1.709 o
8 -4 7 4220.200 4151.210 50.128 0.188 o
8 -4 8 813.559 785.613 12.252 2.947 o
8 -4 9 2817.940 2725.340 35.056 0.391 o
8 -4 10 1324.080 1271.470 22.252 1.367 o
8 -4 11 389.798 383.300 9.269 7.904 o
8 -4 12 2209.320 2197.720 32.171 0.580 o
8 -4 13 132.709 118.829 5.090 29.696 o
8 -4 14 2992.910 2898.230 40.663 0.348 o
8 -4 15 481.613 440.538 9.980 6.202 o
8 -4 16 412.520 375.025 10.191 7.506 o
8 -4 17 801.278 776.312 16.509 2.902 o
8 -4 18 375.301 361.274 10.601 8.168 o
8 -4 19 732.544 707.258 16.143 3.290 o
8 -4 20 1027.270 1040.650 31.948 1.749 o
8 -4 21 641.748 632.944 16.425 3.859 o
8 -4 22 388.036 425.606 10.199 7.493 o
8 -4 23 23.104 23.173 2.533 176.245 o
8 -4 24 92.767 109.024 3.675 40.822 o
8 -4 25 1106.320 1066.090 21.393 1.784 o
8 -4 26 207.416 224.423 7.691 16.158 o
8 -4 27 95.012 80.132 3.478 44.913 o
8 -3 0 4889.770 4376.120 111.712 0.133 o
8 -3 1 95.126 60.039 3.980 47.733 o
8 -3 2 1.114 4.810 2.848 773.560 o
8 -3 3 1138.430 1172.550 26.414 1.596 o
8 -3 4 192.505 118.847 5.599 21.983 o
8 -3 5 6081.350 6081.890 81.534 0.093 o
8 -3 6 4321.450 3925.580 52.064 0.188 o
8 -3 7 4510.040 4199.750 79.126 0.162 o
8 -3 8 1063.410 981.237 16.954 1.987 o
8 -3 9 5050.310 4796.940 65.942 0.136 o
8 -3 10 384.076 432.884 10.138 7.505 o
8 -3 11 4151.040 4169.990 58.593 0.188 o
8 -3 12 1642.060 1507.160 24.556 0.996 o
8 -3 13 2386.380 2255.020 37.840 0.515 o
8 -3 14 2695.020 2550.630 39.943 0.420 o
8 -3 15 218.201 236.202 7.786 15.255 o
8 -3 16 268.350 303.899 7.749 11.889 o
8 -3 17 96.822 102.669 5.750 37.653 o
8 -3 18 1791.970 1691.200 31.811 0.829 o
8 -3 19 3506.800 3239.970 72.804 0.249 o
8 -3 20 563.118 538.984 11.301 4.909 o
8 -3 21 427.663 412.400 9.141 7.120 o
8 -3 22 51.008 48.444 3.130 81.803 o
8 -3 23 221.262 195.773 5.973 16.808 o
8 -3 24 61.447 69.628 6.254 54.197 o
8 -3 25 176.671 185.463 6.027 20.237 o
8 -3 26 367.705 340.030 13.463 8.034 o
8 -3 27 1.952 -0.530 1.868 1617.800 o
8 -2 0 44.530 72.611 4.120 72.397 o
8 -2 1 3491.470 3372.080 52.248 0.261 o
8 -2 2 38.005 30.988 4.032 105.507 o
8 -2 3 2675.800 3074.700 80.579 0.322 o
8 -2 4 648.380 755.703 19.744 3.393 o
8 -2 5 5.973 14.317 2.748 381.918 o
8 -2 6 2.032 4.564 2.190 924.046 o
8 -2 7 271.258 259.808 7.079 12.695 o
8 -2 8 367.548 345.657 7.738 8.827 o
8 -2 9 38.242 39.281 2.690 107.873 o
8 -2 10 114.888 101.050 4.662 35.124 o
8 -2 11 734.859 653.863 16.573 3.374 o
8 -2 12 3016.530 3025.140 43.118 0.335 o
8 -2 13 909.498 895.590 16.827 2.413 o
8 -2 14 1908.670 1954.390 31.640 0.722 o
8 -2 15 1922.780 1841.020 32.241 0.737 o
8 -2 16 2428.230 2312.530 38.804 0.497 o
8 -2 17 271.292 235.010 7.812 12.978 o
8 -2 18 299.384 277.386 9.193 11.034 o
8 -2 19 131.077 125.388 4.402 29.997 o
8 -2 20 345.047 313.314 7.609 9.675 o
8 -2 21 347.922 326.736 8.575 9.322 o
8 -2 22 222.693 200.884 7.611 15.999 o
8 -2 23 25.359 24.377 2.777 160.574 o
8 -2 24 7.258 7.638 3.383 370.116 o
8 -2 25 7.718 7.610 4.736 260.453 o
8 -2 26 61.096 57.974 3.231 68.247 o
8 -1 0 1104.180 1204.920 21.848 1.678 o
8 -1 1 361.653 336.905 8.579 8.927 o
8 -1 2 4638.920 4306.920 53.270 0.164 o
8 -1 3 3320.280 3229.400 41.359 0.291 o
8 -1 4 393.555 381.066 7.743 8.020 o
8 -1 5 492.057 443.344 9.980 6.072 o
8 -1 6 780.723 780.538 13.321 3.048 o
8 -1 7 81.966 72.439 4.101 50.305 o
8 -1 8 118.415 116.728 4.062 33.353 o
8 -1 9 1999.570 1951.880 26.527 0.702 o
8 -1 10 14.417 25.683 3.426 196.406 o
8 -1 11 3073.330 2933.300 38.836 0.337 o
8 -1 12 757.493 695.609 12.800 3.315 o
8 -1 13 1021.860 1011.060 17.520 2.030 o
8 -1 14 189.026 173.632 5.318 20.035 o
8 -1 15 429.489 395.490 8.253 7.293 o
8 -1 16 1674.460 1552.650 23.006 0.968 o
8 -1 17 392.496 380.609 9.381 7.869 o
8 -1 18 830.924 811.764 14.977 2.788 o
8 -1 19 52.641 37.698 3.212 85.567 o
8 -1 20 0.430 1.740 2.740 1089.190 o
8 -1 21 391.604 420.291 11.680 7.306 o
8 -1 22 27.798 36.424 3.796 122.595 o
8 -1 23 109.143 113.708 5.703 33.753 o
8 -1 24 167.020 169.764 5.448 22.065 o
8 -1 25 13.389 12.426 2.215 303.020 o
8 0 0 10415.400 10278.600 105.597 0.035 o
8 0 1 100.117 127.895 4.475 35.631 o
8 0 2 1279.740 1244.520 19.839 1.450 o
8 0 3 1800.530 1860.610 24.582 0.811 o
8 0 4 1023.440 1063.490 15.928 1.998 o
8 0 5 94.146 93.451 4.393 41.738 o
8 0 6 1220.120 1173.270 24.768 1.514 o
8 0 7 1102.240 1149.140 19.386 1.751 o
8 0 8 0.885 3.231 2.811 887.064 o
8 0 9 555.661 554.379 12.081 4.865 o
8 0 10 1.421 8.477 3.382 519.841 o
8 0 11 1240.550 1202.070 24.602 1.475 o
8 0 12 474.695 491.003 13.287 5.744 o
8 0 13 1045.610 1020.290 19.743 1.945 o
8 0 14 9.726 6.107 3.433 335.432 o
8 0 15 530.772 522.192 13.415 5.101 o
8 0 16 997.677 956.036 17.869 2.127 o
8 0 17 20.423 26.605 3.123 170.754 o
8 0 18 553.778 526.891 19.354 4.485 o
8 0 19 69.278 84.845 4.572 52.081 o
8 0 20 484.093 478.669 13.227 5.718 o
8 0 21 124.638 109.716 5.372 31.569 o
8 0 22 18.212 20.840 2.806 203.393 o
8 0 23 782.078 807.125 23.327 2.706 o
8 0 24 32.398 30.841 4.211 114.208 o
8 1 0 0.521 6.260 1.780 1206.780 o
8 1 1 624.620 608.890 9.994 4.300 o
8 1 2 294.407 344.942 7.262 10.597 o
8 1 3 15.916 20.921 2.704 220.822 o
8 1 4 5107.300 5290.750 110.640 0.116 o
8 1 5 2.514 4.799 2.948 645.838 o
8 1 6 6.615 10.993 3.031 380.076 o
8 1 7 820.994 798.211 13.423 2.876 o
8 1 8 1572.960 1575.110 26.259 1.010 o
8 1 9 863.210 848.278 14.918 2.638 o
8 1 10 26.711 26.253 3.806 138.264 o
8 1 11 3.306 8.227 3.461 448.855 o
8 1 12 25.554 22.559 3.796 147.599 o
8 1 13 1664.280 1622.250 30.802 0.917 o
8 1 14 33.453 24.075 4.242 118.643 o
8 1 15 297.742 329.457 18.527 8.218 o
8 1 16 2591.680 2577.400 52.845 0.415 o
8 1 17 151.245 155.313 8.870 21.892 o
8 1 18 163.207 174.944 6.830 21.395 o
8 1 19 49.167 50.469 4.250 77.513 o
8 1 20 4.166 4.359 2.707 617.304 o
8 1 21 104.659 107.172 3.900 37.634 o
8 1 22 211.443 205.280 10.899 15.025 o
8 1 23 3.993 2.898 1.456 1018.190 o
8 2 0 67.972 73.981 2.919 59.235 o
8 2 1 61.547 48.571 2.555 73.591 o
8 2 2 5567.320 5463.640 92.821 0.108 o
8 2 3 374.212 390.004 12.409 7.695 o
8 2 4 2.400 7.715 2.639 636.174 o
8 2 5 2765.470 2798.500 53.403 0.371 o
8 2 6 140.052 139.239 5.591 26.717 o
8 2 7 1126.580 1049.760 18.590 1.800 o
8 2 8 762.246 735.994 21.974 2.922 o
8 2 9 1059.340 1038.960 33.795 1.671 o
8 2 10 6.916 10.423 3.702 325.289 o
8 2 11 746.507 752.332 43.024 2.114 o
8 2 12 32.615 30.909 4.017 115.763 o
8 2 13 1864.230 1776.470 47.113 0.711 o
8 2 14 714.537 725.980 55.257 1.744 o
8 2 15 14.365 9.051 4.037 232.081 o
8 2 16 344.962 348.881 14.560 8.141 o
8 2 17 0.054 0.721 3.247 918.558 o
8 2 18 78.584 74.822 4.900 49.464 o
8 2 19 143.242 135.842 5.875 26.298 o
8 2 20 255.647 271.043 5.871 13.335 o
8 2 21 35.258 32.633 2.152 124.252 o
8 2 22 139.934 104.260 4.538 30.172 o
8 3 0 6285.380 6171.060 63.323 0.091 o
8 3 1 98.082 84.707 3.383 43.258 o
8 3 2 328.969 288.727 6.791 10.496 o
8 3 3 818.131 828.478 17.067 2.751 o
8 3 4 373.483 358.622 9.223 8.407 o
8 3 5 126.385 109.075 4.527 32.138 o
8 3 6 0.108 0.320 3.479 819.473 o
8 3 7 67.215 75.449 5.902 51.417 o
8 3 8 384.616 382.832 21.141 6.236 o
8 3 9 150.386 153.650 7.519 23.151 o
8 3 10 159.800 131.483 9.993 21.227 o
8 3 11 277.407 276.117 12.630 10.786 o
8 3 12 1.008 0.304 4.451 476.195 o
8 3 13 2.672 0.881 4.474 417.076 o
8 3 14 291.200 280.902 16.242 9.377 o
8 3 15 1008.970 1018.720 23.941 1.944 o
8 3 16 28.017 21.145 3.124 151.889 o
8 3 17 153.765 166.450 6.205 23.095 o
8 3 18 277.274 285.830 7.341 11.978 o
8 3 19 295.925 299.508 7.264 11.196 o
8 3 20 113.244 109.525 5.083 34.094 o
8 3 21 32.930 29.732 4.216 114.198 o
8 4 0 2075.390 2088.690 24.175 0.655 o
8 4 1 1541.300 1537.760 19.220 1.079 o
8 4 2 212.799 186.710 5.452 17.789 o
8 4 3 2812.420 2767.120 43.598 0.379 o
8 4 4 38.037 36.641 3.147 107.571 o
8 4 5 537.691 590.776 14.648 4.710 o
8 4 6 174.946 171.802 6.808 20.533 o
8 4 7 1089.390 1122.090 27.378 1.682 o
8 4 8 895.546 918.827 30.552 2.096 o
8 4 9 4952.800 5088.370 160.681 0.105 o
8 4 10 225.819 218.392 6.852 15.639 o
8 4 11 505.623 476.719 13.551 5.499 o
8 4 12 52.455 56.540 4.239 71.982 o
8 4 13 440.148 468.854 17.512 5.759 o
8 4 14 75.498 68.803 4.221 53.758 o
8 4 15 460.430 455.395 12.354 6.156 o
8 4 16 827.400 914.376 28.819 2.286 o
8 4 17 108.445 106.015 6.883 33.029 o
8 4 18 169.338 190.993 7.685 19.712 o
8 4 19 4.583 4.636 1.824 763.974 o
8 4 20 292.757 288.786 25.704 6.817 o
8 5 0 775.696 763.798 10.731 3.157 o
8 5 1 3374.470 3309.730 33.908 0.286 o
8 5 2 4046.820 4142.580 51.066 0.197 o
8 5 3 470.798 524.550 10.223 5.853 o
8 5 4 112.439 114.501 4.988 33.857 o
8 5 5 327.423 320.914 8.219 9.910 o
8 5 6 36.364 33.453 3.453 111.205 o
8 5 7 1901.930 2040.260 33.118 0.703 o
8 5 8 32.213 31.712 4.870 106.627 o
8 5 9 1298.840 1308.820 29.449 1.309 o
8 5 10 89.047 86.094 4.914 43.601 o
8 5 11 12.736 4.526 3.205 316.981 o
8 5 12 167.916 167.059 9.628 19.460 o
8 5 13 66.452 72.395 3.473 59.349 o
8 5 14 135.715 137.059 8.559 24.676 o
8 5 15 766.978 847.687 21.881 2.738 o
8 5 16 217.062 206.058 8.558 15.782 o
8 5 17 30.052 32.606 4.436 114.631 o
8 5 18 0.096 -1.392 1.940 2622.760 o
8 6 0 5295.750 5370.150 56.313 0.123 o
8 6 1 497.164 514.824 8.605 5.737 o
8 6 2 34.364 32.109 2.830 121.928 o
8 6 3 275.148 297.579 6.383 12.039 o
8 6 4 79.172 92.342 3.630 48.257 o
8 6 5 301.156 307.712 6.993 10.971 o
8 6 6 394.436 406.902 8.858 7.682 o
8 6 7 1721.610 1798.850 29.372 0.847 o
8 6 8 1552.670 1649.930 27.059 0.995 o
8 6 9 180.686 219.774 6.513 18.429 o
8 6 10 1109.320 1142.810 19.520 1.744 o
8 6 11 949.238 997.163 56.295 1.359 o
8 6 12 99.805 115.823 11.809 25.897 o
8 6 13 64.472 61.104 7.373 50.658 o
8 6 14 117.775 124.504 5.263 31.587 o
8 6 15 480.544 523.897 15.789 5.324 o
8 6 16 297.818 282.795 7.254 11.392 o
8 6 17 107.670 101.469 3.943 37.547 o
8 7 0 174.031 169.465 6.473 20.895 o
8 7 1 2692.200 2758.630 50.782 0.388 o
8 7 2 136.568 121.877 5.388 28.601 o
8 7 3 2.174 1.012 2.880 839.737 o
8 7 4 1833.360 1778.020 29.195 0.799 o
8 7 5 9.136 9.410 3.114 341.228 o
8 7 6 51.399 36.506 3.632 85.622 o
8 7 7 287.670 285.410 9.821 11.111 o
8 7 8 18.863 14.636 2.668 223.150 o
8 7 9 69.408 71.236 3.584 57.755 o
8 7 10 27.502 34.034 2.542 139.774 o
8 7 11 52.973 58.379 3.825 72.491 o
8 7 12 191.759 166.761 8.518 18.485 o
8 7 13 164.397 172.708 6.122 21.806 o
8 7 14 105.649 97.945 6.219 35.422 o
8 8 0 0.787 2.136 2.778 983.090 o
8 8 1 405.176 442.506 10.050 7.137 o
8 8 2 53.869 68.943 3.827 67.641 o
8 8 3 381.300 387.036 10.015 7.925 o
8 8 4 466.033 492.384 17.066 5.465 o
8 8 5 1.187 3.395 2.526 968.061 o
8 8 6 686.797 762.256 22.296 3.122 o
8 8 7 1128.020 1202.460 25.481 1.602 o
8 8 8 42.954 36.858 3.226 98.812 o
8 8 9 4.374 7.983 2.101 615.311 o
8 8 10 3.723 3.060 3.526 509.484 o
8 8 11 58.915 52.440 4.674 66.782 o
8 9 0 430.883 444.355 9.706 6.811 o
8 9 1 233.989 241.149 6.418 14.799 o
8 9 2 825.279 859.697 21.822 2.559 o
8 9 3 813.458 832.866 20.352 2.671 o
8 9 4 655.195 692.731 16.216 3.656 o
8 9 5 281.718 275.740 10.169 11.340 o
8 9 6 85.224 76.259 3.839 48.683 o
8 9 7 106.019 124.719 11.328 25.377 o
8 9 8 880.305 869.413 30.317 2.180 o
8 10 0 221.705 218.146 8.978 15.076 o
8 10 1 398.782 390.931 10.719 7.533 o
8 10 2 1.796 3.289 1.840 1219.630 o
8 10 3 592.281 565.447 36.087 3.011 o
8 10 4 165.132 161.038 7.856 21.171 o
9 -17 0 1.874 4.068 2.511 853.259 o
9 -17 1 5.479 18.722 2.965 334.779 o
9 -17 3 804.823 808.510 28.206 2.479 o
9 -17 4 18.170 22.734 2.606 202.235 o
9 -17 5 464.322 416.093 14.940 6.066 o
9 -17 6 1586.460 1516.590 33.967 0.975 o
9 -17 7 1707.570 1355.580 31.528 0.966 o
9 -17 8 28.567 24.578 1.723 159.717 o
9 -17 9 1.802 5.810 2.361 823.469 o
9 -16 0 22.664 25.359 2.913 167.405 o
9 -16 1 5.116 4.638 2.580 584.533 o
9 -16 2 48.292 56.254 4.511 74.391 o
9 -16 3 40.419 39.764 3.550 98.354 o
9 -16 4 10.721 9.544 2.485 353.853 o
9 -16 5 6.874 14.323 2.510 380.640 o
9 -16 6 12.685 8.930 2.376 331.675 o
9 -16 7 461.621 436.657 10.130 6.442 o
9 -16 8 1936.410 2024.670 37.654 0.678 o
9 -16 9 136.960 131.368 4.668 28.408 o
9 -16 10 82.900 79.681 3.467 49.573 o
9 -16 11 1349.300 1344.690 25.990 1.276 o
9 -16 12 21.878 20.328 2.529 189.476 o
9 -16 13 1052.430 907.068 21.786 2.003 o
9 -16 14 624.198 493.790 17.547 4.280 o
9 -15 0 382.192 403.034 8.534 7.946 o
9 -15 1 29.224 38.626 3.213 122.834 o
9 -15 2 34.789 29.519 3.048 122.037 o
9 -15 3 1555.310 1406.640 25.163 1.087 o
9 -15 4 859.826 818.300 12.992 2.730 o
9 -15 5 111.980 115.100 4.533 34.383 o
9 -15 6 52.355 51.692 3.335 77.985 o
9 -15 7 15.057 22.498 2.687 221.744 o
9 -15 8 38.996 36.333 2.727 108.948 o
9 -15 9 4588.850 4535.060 65.331 0.158 o
9 -15 10 209.050 234.795 6.151 16.330 o
9 -15 11 140.922 144.952 4.481 27.003 o
9 -15 12 4.492 6.169 1.874 702.387 o
9 -15 13 6.866 3.318 1.655 673.668 o
9 -15 14 3.957 4.951 1.712 831.308 o
9 -15 15 205.213 216.705 7.715 16.485 o
9 -15 16 181.612 187.258 8.633 18.413 o
9 -15 17 274.097 214.483 8.792 12.991 o
9 -14 0 102.887 121.203 4.450 35.788 o
9 -14 1 97.846 112.106 5.128 37.181 o
9 -14 2 1281.640 1255.230 23.467 1.410 o
9 -14 3 3733.210 3920.280 58.057 0.220 o
9 -14 4 1433.050 1453.200 23.746 1.172 o
9 -14 5 1079.030 1089.840 18.583 1.844 o
9 -14 6 5103.300 5136.960 74.628 0.128 o
9 -14 7 1.501 9.611 3.059 551.672 o
9 -14 8 184.901 193.339 6.220 19.202 o
9 -14 9 1095.310 1232.100 22.553 1.663 o
9 -14 10 299.586 312.073 10.178 10.348 o
9 -14 11 283.796 291.949 10.523 10.958 o
9 -14 12 4307.820 4507.460 84.247 0.162 o
9 -14 13 92.993 119.233 5.047 37.608 o
9 -14 14 209.054 247.042 7.306 15.612 o
9 -14 15 22.647 24.424 2.749 172.101 o
9 -14 16 22.123 15.488 3.292 185.572 o
9 -14 17 142.961 146.403 6.512 25.169 o
9 -14 18 103.490 94.826 4.755 38.441 o
9 -14 19 17.821 16.347 1.811 245.185 o
9 -13 0 1297.950 1185.170 22.908 1.436 o
9 -13 1 461.111 441.602 11.036 6.343 o
9 -13 2 926.868 1014.490 23.259 2.113 o
9 -13 3 1816.830 1913.020 41.808 0.727 o
9 -13 4 3361.130 3380.580 57.012 0.268 o
9 -13 5 3003.340 3130.190 53.016 0.320 o
9 -13 6 275.391 300.104 9.957 11.221 o
9 -13 7 66.326 87.584 7.072 45.906 o
9 -13 8 1100.530 1137.280 25.064 1.689 o
9 -13 9 246.400 265.983 7.507 13.423 o
9 -13 10 601.493 595.946 12.995 4.359 o
9 -13 11 801.368 817.994 20.248 2.730 o
9 -13 12 219.988 215.769 7.635 15.739 o
9 -13 13 431.380 448.619 11.811 6.580 o
9 -13 14 95.937 95.705 4.869 40.175 o
9 -13 15 34.333 30.053 3.227 120.841 o
9 -13 16 40.603 45.750 4.172 89.860 o
9 -13 17 3.657 3.391 3.690 478.019 o
9 -13 18 415.578 456.349 18.154 5.981 o
9 -13 19 33.013 27.962 2.907 129.468 o
9 -13 20 0.267 0.459 1.699 2838.790 o
9 -12 0 56.132 55.421 6.522 59.566 o
9 -12 1 1.044 4.412 3.407 626.626 o
9 -12 2 667.811 624.579 16.196 3.760 o
9 -12 3 796.463 870.217 21.011 2.647 o
9 -12 4 11.390 15.763 3.509 251.571 o
9 -12 5 5.403 17.542 3.614 302.366 o
9 -12 6 119.938 98.853 5.885 32.862 o
9 -12 7 266.620 300.674 10.066 11.445 o
9 -12 8 418.365 436.343 15.302 6.415 o
9 -12 9 521.916 588.802 25.651 3.995 o
9 -12 10 3839.220 4080.530 95.669 0.186 o
9 -12 11 53.164 60.643 3.604 72.228 o
9 -12 12 496.263 546.768 14.322 5.217 o
9 -12 13 656.273 693.715 16.870 3.620 o
9 -12 14 169.258 190.556 11.579 17.242 o
9 -12 15 1563.270 1711.690 34.755 0.927 o
9 -12 16 414.413 497.813 10.983 6.567 o
9 -12 17 176.944 170.528 6.285 20.704 o
9 -12 18 196.970 225.470 6.965 17.012 o
9 -12 19 5.880 3.086 2.284 637.660 o
9 -12 20 328.259 354.060 8.697 9.435 o
9 -12 21 593.628 594.689 12.573 4.434 o
9 -12 22 0.430 0.614 1.400 3377.300 o
9 -11 0 1508.980 1529.750 27.227 1.064 o
9 -11 1 2.887 3.342 2.991 656.872 o
9 -11 2 297.278 336.718 9.141 10.301 o
9 -11 3 1829.220 1790.760 29.624 0.797 o
9 -11 4 666.271 682.148 16.513 3.616 o
9 -11 5 1411.990 1382.800 24.008 1.218 o
9 -11 6 10.429 11.419 2.953 315.630 o
9 -11 7 27.811 35.868 3.617 125.201 o
9 -11 8 1560.580 1513.400 50.106 0.877 o
9 -11 9 751.364 786.758 18.380 2.998 o
9 -11 10 547.240 609.259 13.897 4.625 o
9 -11 11 110.478 125.279 5.431 32.684 o
9 -11 12 41.053 42.348 3.175 97.857 o
9 -11 13 1766.220 1788.710 28.828 0.830 o
9 -11 14 4.529 12.906 3.121 396.486 o
9 -11 15 5446.500 5557.870 80.688 0.112 o
9 -11 16 2375.980 2599.890 39.545 0.476 o
9 -11 17 3.166 12.904 3.007 443.009 o
9 -11 18 1552.280 1668.940 33.659 0.952 o
9 -11 19 255.193 308.486 8.703 12.026 o
9 -11 20 185.022 199.320 6.379 18.903 o
9 -11 21 33.251 39.027 3.266 113.386 o
9 -11 22 2.399 4.029 1.740 1082.540 o
9 -11 23 67.398 61.321 13.129 31.485 o
9 -10 0 2997.670 3101.710 49.776 0.326 o
9 -10 1 13.113 20.522 3.448 220.534 o
9 -10 2 892.204 947.136 17.887 2.371 o
9 -10 3 122.102 105.332 5.099 32.733 o
9 -10 4 1636.060 1597.090 26.880 0.961 o
9 -10 5 2556.610 2637.730 40.841 0.435 o
9 -10 6 397.407 428.546 9.094 7.446 o
9 -10 7 639.333 701.323 12.611 3.856 o
9 -10 8 399.833 389.140 8.337 7.790 o
9 -10 9 886.656 840.669 14.566 2.589 o
9 -10 10 41.108 22.456 2.897 117.206 o
9 -10 11 16.722 22.797 2.952 203.121 o
9 -10 12 2552.710 2648.290 45.968 0.427 o
9 -10 13 321.041 368.344 10.982 9.061 o
9 -10 14 3.614 13.124 3.156 411.992 o
9 -10 15 3768.250 3886.280 57.877 0.218 o
9 -10 16 197.780 194.826 6.053 18.302 o
9 -10 17 100.589 102.082 4.869 38.099 o
9 -10 18 240.427 225.431 6.805 14.757 o
9 -10 19 12.398 13.114 2.663 292.497 o
9 -10 20 2918.470 3047.470 47.218 0.341 o
9 -10 21 65.025 66.750 3.342 62.232 o
9 -10 22 0.456 3.525 1.826 1560.460 o
9 -10 23 1361.770 1247.660 27.448 1.297 o
9 -10 24 144.760 131.275 6.458 25.916 o
9 -9 0 6774.510 6775.610 113.916 0.074 o
9 -9 1 8780.300 8639.380 127.003 0.046 o
9 -9 2 5397.370 5306.860 70.365 0.118 o
9 -9 3 1430.440 1394.380 22.734 1.205 o
9 -9 4 307.833 300.067 8.901 10.549 o
9 -9 5 5555.030 5486.060 79.828 0.110 o
9 -9 6 3248.920 3255.560 50.492 0.290 o
9 -9 7 80.400 109.740 8.558 35.372 o
9 -9 8 19282.700 18353.700 242.620 0.011 o
9 -9 9 1182.690 1132.720 18.681 1.653 o
9 -9 10 63.683 66.831 5.097 57.788 o
9 -9 11 279.148 277.344 9.004 11.683 o
9 -9 12 4.009 10.909 3.675 374.375 o
9 -9 13 6114.410 6056.630 114.123 0.088 o
9 -9 14 1322.290 1289.390 28.565 1.304 o
9 -9 15 314.658 316.667 10.505 9.856 o
9 -9 16 114.905 109.377 6.172 32.457 o
9 -9 17 171.210 192.091 15.148 14.738 o
9 -9 18 14.489 15.739 6.383 138.814 o
9 -9 19 4.448 4.387 2.668 608.988 o
9 -9 20 113.867 122.833 4.541 33.205 o
9 -9 21 287.656 265.721 7.142 12.008 o
9 -9 22 256.531 278.315 13.940 10.915 o
9 -9 23 12.133 17.160 2.978 259.792 o
9 -9 24 2.057 4.524 2.539 803.909 o
9 -8 0 1766.470 1673.610 24.778 0.874 o
9 -8 1 31.143 51.839 3.722 102.145 o
9 -8 2 767.655 823.134 15.658 2.960 o
9 -8 3 40.853 38.470 3.453 99.322 o
9 -8 4 2291.950 2299.210 33.786 0.541 o
9 -8 5 2804.110 2708.170 38.915 0.390 o
9 -8 6 1171.700 1213.940 20.296 1.597 o
9 -8 7 1735.100 1667.500 22.401 0.901 o
9 -8 8 722.303 742.598 12.039 3.385 o
9 -8 9 195.658 184.318 5.707 18.960 o
9 -8 10 21.276 22.616 2.592 185.529 o
9 -8 11 317.321 303.583 8.515 10.327 o
9 -8 12 470.122 469.590 11.504 6.049 o
9 -8 13 1189.920 1163.480 21.878 1.590 o
9 -8 14 12.326 7.531 3.337 294.371 o
9 -8 15 784.745 804.920 17.308 2.888 o
9 -8 16 1568.300 1637.990 38.216 0.924 o
9 -8 17 441.328 430.845 12.532 6.494 o
9 -8 18 13.537 11.707 3.534 249.386 o
9 -8 19 799.674 815.067 30.705 2.398 o
9 -8 20 6.018 8.034 2.686 467.541 o
9 -8 21 9.128 5.189 2.338 452.217 o
9 -8 22 249.285 252.535 6.450 13.849 o
9 -8 23 180.659 187.225 6.036 19.843 o
9 -8 24 1014.540 980.267 29.589 1.860 o
9 -8 25 621.441 498.658 19.999 4.123 o
9 -7 0 11.114 20.098 4.606 195.258 o
9 -7 1 523.485 546.310 15.044 4.950 o
9 -7 2 12610.000 12376.300 180.794 0.023 o
9 -7 3 25.698 38.254 5.960 99.608 o
9 -7 4 967.764 937.342 16.763 2.228 o
9 -7 5 92.383 95.783 4.612 41.582 o
9 -7 6 104.966 111.338 4.018 36.924 o
9 -7 7 2301.790 2193.200 27.953 0.563 o
9 -7 8 649.515 672.590 12.060 3.898 o
9 -7 9 1738.800 1687.700 22.606 0.893 o
9 -7 10 1368.230 1398.710 20.222 1.275 o
9 -7 11 261.993 266.070 7.025 12.935 o
9 -7 12 5825.530 5642.810 79.633 0.103 o
9 -7 13 62.312 83.997 4.715 55.205 o
9 -7 14 597.437 629.980 13.397 4.260 o
9 -7 15 454.449 441.498 11.352 6.392 o
9 -7 16 3.220 5.189 3.077 570.360 o
9 -7 17 1680.560 1706.430 35.028 0.865 o
9 -7 18 775.596 784.294 21.385 2.824 o
9 -7 19 124.265 111.544 4.779 32.066 o
9 -7 20 60.096 57.666 3.960 66.757 o
9 -7 21 233.279 228.564 5.765 15.317 o
9 -7 22 750.230 702.177 18.467 3.150 o
9 -7 23 586.201 531.432 13.154 4.667 o
9 -7 24 32.155 36.452 2.478 124.792 o
9 -7 25 31.617 27.407 3.235 130.427 o
9 -6 0 2345.710 2188.350 31.202 0.546 o
9 -6 1 6693.600 6309.880 80.050 0.082 o
9 -6 2 73.445 66.978 3.392 57.152 o
9 -6 3 11504.900 11363.200 121.913 0.029 o
9 -6 4 529.634 513.411 9.115 5.409 o
9 -6 5 5325.820 5168.570 63.316 0.123 o
9 -6 6 1403.190 1418.330 21.064 1.229 o
9 -6 7 198.330 202.820 6.024 18.007 o
9 -6 8 25.553 31.493 2.687 148.304 o
9 -6 9 250.444 239.542 5.830 14.227 o
9 -6 10 45.156 46.262 3.157 89.676 o
9 -6 11 2943.480 2827.020 39.694 0.360 o
9 -6 12 966.934 965.197 16.656 2.201 o
9 -6 13 652.928 607.964 12.628 4.034 o
9 -6 14 2.808 6.124 2.716 642.428 o
9 -6 15 226.013 235.516 7.029 15.140 o
9 -6 16 140.556 141.491 5.445 26.613 o
9 -6 17 726.249 690.677 15.086 3.386 o
9 -6 18 426.086 421.444 12.252 6.768 o
9 -6 19 185.292 178.211 7.322 19.195 o
9 -6 20 31.777 36.700 3.946 112.415 o
9 -6 21 927.532 912.257 21.616 2.253 o
9 -6 22 13.750 21.822 1.968 253.793 o
9 -6 23 156.931 143.126 4.494 25.070 o
9 -6 24 68.970 66.774 2.810 60.997 o
9 -6 25 60.688 54.401 4.250 66.467 o
9 -5 0 3011.640 2895.960 41.707 0.345 o
9 -5 1 11002.100 10080.700 132.684 0.032 o
9 -5 2 583.904 544.227 14.351 4.570 o
9 -5 3 709.261 748.725 15.201 3.332 o
9 -5 4 105.675 116.787 5.206 34.774 o
9 -5 5 12.221 16.515 2.391 285.113 o
9 -5 6 397.716 467.620 8.110 7.243 o
9 -5 7 2797.280 2715.760 31.512 0.399 o
9 -5 8 6859.310 6662.820 69.936 0.078 o
9 -5 9 16.447 20.867 2.228 228.637 o
9 -5 10 3.393 5.611 2.171 744.234 o
9 -5 11 108.349 101.650 4.090 37.199 o
9 -5 12 398.833 397.128 8.247 7.751 o
9 -5 13 300.175 302.570 7.708 10.949 o
9 -5 14 2249.330 2218.900 31.954 0.566 o
9 -5 15 798.731 792.852 15.234 2.917 o
9 -5 16 347.463 353.408 9.536 8.912 o
9 -5 17 404.998 409.126 10.874 7.289 o
9 -5 18 577.908 583.813 13.556 4.522 o
9 -5 19 158.806 171.604 6.337 22.258 o
9 -5 20 3.229 2.316 2.715 743.854 o
9 -5 21 108.042 119.140 4.127 35.211 o
9 -5 22 543.515 511.618 10.430 5.225 o
9 -5 23 17.423 21.985 2.239 217.147 o
9 -5 24 22.230 28.654 2.863 163.218 o
9 -5 25 3.759 2.004 2.205 867.713 o
9 -4 0 5430.740 5457.900 70.122 0.115 o
9 -4 1 2484.890 2334.950 30.758 0.496 o
9 -4 2 2243.140 2338.320 31.282 0.553 o
9 -4 3 366.714 439.322 8.213 7.935 o
9 -4 4 1353.570 1472.020 20.069 1.256 o
9 -4 5 3364.770 3455.700 42.987 0.275 o
9 -4 6 2107.010 2121.560 29.457 0.628 o
9 -4 7 47.694 54.529 3.328 81.258 o
9 -4 8 1670.020 1684.290 26.883 0.915 o
9 -4 9 729.153 670.335 12.472 3.501 o
9 -4 10 137.105 168.573 5.467 25.322 o
9 -4 11 983.943 980.808 16.060 2.157 o
9 -4 12 8513.630 8233.280 96.799 0.051 o
9 -4 13 1341.120 1308.120 18.809 1.356 o
9 -4 14 452.556 426.470 9.028 6.705 o
9 -4 15 20.941 13.522 2.666 212.558 o
9 -4 16 582.076 523.592 11.293 4.825 o
9 -4 17 1252.880 1240.770 24.091 1.444 o
9 -4 18 253.986 265.668 8.061 12.988 o
9 -4 19 6.073 7.184 2.391 515.638 o
9 -4 20 474.591 509.650 10.012 5.904 o
9 -4 21 840.720 785.732 15.252 2.792 o
9 -4 22 123.860 135.884 4.675 30.103 o
9 -4 23 81.068 69.168 3.212 53.129 o
9 -4 24 72.903 59.631 5.471 53.746 o
9 -3 0 163.557 168.437 5.634 22.361 o
9 -3 1 3920.090 3829.090 51.986 0.214 o
9 -3 2 0.570 5.020 2.322 1036.600 o
9 -3 3 6711.970 6791.870 80.661 0.078 o
9 -3 4 748.915 785.042 12.340 3.183 o
9 -3 5 373.695 368.691 8.050 8.451 o
9 -3 6 1245.300 1290.530 19.516 1.466 o
9 -3 7 122.902 129.436 5.139 30.392 o
9 -3 8 1240.350 1209.990 22.132 1.495 o
9 -3 9 2199.990 2169.050 28.910 0.593 o
9 -3 10 5645.150 5339.620 65.793 0.112 o
9 -3 11 521.041 508.962 11.300 5.379 o
9 -3 12 62.514 67.112 3.972 61.954 o
9 -3 13 5297.400 5043.390 65.406 0.125 o
9 -3 14 57.265 54.818 3.876 70.256 o
9 -3 15 21.397 21.393 3.919 162.321 o
9 -3 16 11.727 10.782 2.501 325.740 o
9 -3 17 66.983 60.480 3.028 63.765 o
9 -3 18 4381.290 4210.630 61.959 0.174 o
9 -3 19 73.400 86.203 4.668 49.790 o
9 -3 20 7.713 10.026 3.014 369.083 o
9 -3 21 1021.910 1061.290 45.102 1.486 o
9 -3 22 18.762 25.983 3.636 169.452 o
9 -3 23 1103.150 1094.780 27.220 1.684 o
9 -3 24 142.833 107.279 4.709 29.322 o
9 -3 25 122.594 30.871 2.749 44.792 o
9 -2 0 800.157 759.292 17.383 2.910 o
9 -2 1 63.254 91.555 5.231 51.568 o
9 -2 2 373.987 342.414 9.930 8.452 o
9 -2 3 168.024 158.606 5.882 22.266 o
9 -2 4 6062.660 6116.160 96.234 0.091 o
9 -2 5 1327.770 1283.440 26.761 1.319 o
9 -2 6 1829.140 1857.050 31.385 0.776 o
9 -2 7 1776.720 1682.600 31.574 0.839 o
9 -2 8 6.550 6.742 2.746 464.180 o
9 -2 9 2381.860 2263.490 35.544 0.520 o
9 -2 10 752.510 731.847 12.925 3.258 o
9 -2 11 2866.110 2743.010 36.393 0.381 o
9 -2 12 4198.090 3858.160 51.907 0.196 o
9 -2 13 30.499 32.601 3.128 127.798 o
9 -2 14 2391.740 2253.630 35.831 0.518 o
9 -2 15 956.728 942.843 19.565 2.197 o
9 -2 16 2156.030 2017.650 36.182 0.612 o
9 -2 17 2.863 3.906 2.788 692.184 o
9 -2 18 304.949 269.964 9.799 10.847 o
9 -2 19 1965.780 1775.260 46.184 0.679 o
9 -2 20 14.643 12.195 2.745 268.595 o
9 -2 21 383.051 375.059 31.745 4.679 o
9 -2 22 80.673 84.769 4.646 47.260 o
9 -2 23 12.007 16.543 3.400 246.987 o
9 -2 24 8.277 5.397 1.416 566.510 o
9 -1 0 2600.020 2571.700 34.410 0.443 o
9 -1 1 1449.660 1412.820 19.971 1.197 o
9 -1 2 1635.520 1718.040 23.166 0.941 o
9 -1 3 1982.780 2002.810 30.312 0.689 o
9 -1 4 1312.400 1235.240 20.809 1.411 o
9 -1 5 2538.720 2549.150 49.485 0.432 o
9 -1 6 933.150 949.387 17.021 2.288 o
9 -1 7 34.106 34.353 3.293 116.136 o
9 -1 8 2625.900 2538.600 39.635 0.434 o
9 -1 9 5684.050 5347.680 84.081 0.108 o
9 -1 10 430.513 491.038 11.618 6.358 o
9 -1 11 3.737 7.197 2.697 569.248 o
9 -1 12 595.918 567.471 11.335 4.568 o
9 -1 13 914.167 862.180 16.291 2.453 o
9 -1 14 72.640 69.346 3.955 55.669 o
9 -1 15 130.761 136.723 7.858 26.003 o
9 -1 16 289.433 273.212 9.571 11.297 o
9 -1 17 381.396 354.563 14.241 7.577 o
9 -1 18 156.033 142.630 6.671 23.784 o
9 -1 19 170.925 165.880 5.595 21.804 o
9 -1 20 10.205 9.616 2.982 330.963 o
9 -1 21 193.088 212.802 7.900 17.231 o
9 -1 22 171.004 160.949 8.267 20.402 o
9 -1 23 927.040 639.754 22.595 2.559 o
9 0 0 806.081 802.937 10.476 2.978 o
9 0 1 1172.490 1190.220 15.372 1.657 o
9 0 2 6246.600 6266.800 71.219 0.090 o
9 0 3 6.878 8.278 2.265 481.601 o
9 0 4 311.526 302.585 6.562 10.817 o
9 0 5 699.190 655.175 11.520 3.706 o
9 0 6 27.409 19.919 2.857 160.130 o
9 0 7 1455.450 1444.960 29.539 1.118 o
9 0 8 1304.820 1225.610 25.835 1.379 o
9 0 9 673.683 651.700 17.172 3.624 o
9 0 10 2053.010 1943.750 31.346 0.671 o
9 0 11 287.549 300.673 7.393 11.406 o
9 0 12 1807.470 1728.870 32.219 0.811 o
9 0 13 504.182 502.181 12.492 5.478 o
9 0 14 371.332 337.943 9.479 8.606 o
9 0 15 452.321 434.452 10.833 6.506 o
9 0 16 491.539 476.324 17.722 5.254 o
9 0 17 89.494 82.249 4.841 44.218 o
9 0 18 206.368 198.515 8.676 16.514 o
9 0 19 96.793 83.298 5.331 40.926 o
9 0 20 15.105 12.587 2.200 281.213 o
9 0 21 110.491 89.059 3.474 38.909 o
9 0 22 199.935 173.255 8.028 17.985 o
9 0 23 165.590 143.862 6.471 22.867 o
9 1 0 3415.250 3471.570 35.489 0.274 o
9 1 1 52.054 67.685 2.871 72.640 o
9 1 2 677.462 713.074 10.072 3.713 o
9 1 3 707.385 594.321 9.305 3.885 o
9 1 4 49.128 59.221 3.420 77.135 o
9 1 5 898.221 872.638 13.228 2.537 o
9 1 6 541.790 537.670 11.278 5.084 o
9 1 7 33.881 35.109 3.249 116.208 o
9 1 8 15.177 9.486 2.724 278.391 o
9 1 9 358.979 345.612 10.623 8.600 o
9 1 10 423.418 424.887 19.845 5.838 o
9 1 11 544.085 565.155 19.835 4.391 o
9 1 12 512.360 493.117 14.576 5.287 o
9 1 13 301.088 273.078 10.129 10.835 o
9 1 14 1430.240 1364.780 30.096 1.164 o
9 1 15 121.426 117.928 6.076 30.651 o
9 1 16 299.017 305.739 9.548 10.578 o
9 1 17 61.226 56.950 3.966 66.190 o
9 1 18 68.902 65.215 3.270 60.499 o
9 1 19 238.675 261.492 6.327 14.144 o
9 1 20 6.281 5.667 1.654 637.407 o
9 1 21 2.939 1.186 1.485 1393.200 o
9 2 0 1422.630 1400.640 14.994 1.252 o
9 2 1 464.236 466.142 6.724 6.468 o
9 2 2 2883.740 2834.800 29.448 0.378 o
9 2 3 418.108 417.209 8.161 7.309 o
9 2 4 79.557 79.170 5.151 47.648 o
9 2 5 2438.860 2382.920 58.001 0.448 o
9 2 6 2.702 9.408 2.642 575.357 o
9 2 7 592.724 602.383 17.358 4.158 o
9 2 8 931.967 879.581 47.494 1.630 o
9 2 9 76.038 65.544 5.940 49.680 o
9 2 10 3.223 1.190 5.218 312.227 o
9 2 11 326.381 326.763 11.410 9.304 o
9 2 12 572.373 625.708 16.957 4.232 o
9 2 13 414.358 428.214 12.550 6.841 o
9 2 14 250.284 255.068 9.593 12.881 o
9 2 15 861.390 851.987 20.283 2.515 o
9 2 16 8.627 8.218 2.246 431.725 o
9 2 17 36.415 30.693 2.146 123.851 o
9 2 18 287.370 301.346 6.975 11.478 o
9 2 19 3.373 3.010 1.511 1090.020 o
9 2 20 575.843 529.904 13.791 4.708 o
9 3 0 0.182 2.320 2.061 1652.120 o
9 3 1 2596.920 2493.700 27.776 0.459 o
9 3 2 2772.910 2781.510 30.382 0.399 o
9 3 3 175.181 186.087 5.169 20.729 o
9 3 4 16.850 15.835 2.305 244.103 o
9 3 5 116.513 112.885 5.140 33.039 o
9 3 6 461.165 520.698 17.236 5.369 o
9 3 7 171.710 186.754 7.463 19.821 o
9 3 8 1106.190 1099.260 43.783 1.406 o
9 3 9 145.485 168.261 9.850 21.006 o
9 3 10 1459.750 1524.970 33.721 1.056 o
9 3 11 539.209 549.869 15.310 4.801 o
9 3 12 108.629 91.837 5.703 36.209 o
9 3 13 104.898 121.707 6.050 33.353 o
9 3 14 341.910 369.619 10.697 8.684 o
9 3 15 509.872 533.972 16.590 4.982 o
9 3 16 407.168 413.913 8.197 7.494 o
9 3 17 16.076 15.551 1.727 267.789 o
9 3 18 291.571 327.878 9.320 10.529 o
9 3 19 21.530 15.683 1.708 220.170 o
9 4 0 0.870 5.715 2.490 880.595 o
9 4 1 4625.310 4585.750 51.895 0.159 o
9 4 2 14.567 18.075 2.517 248.403 o
9 4 3 1953.590 2025.530 23.602 0.713 o
9 4 4 905.766 924.835 14.376 2.429 o
9 4 5 402.058 401.389 8.105 7.679 o
9 4 6 146.916 139.257 4.891 26.318 o
9 4 7 350.911 385.294 9.508 8.540 o
9 4 8 2027.570 2036.580 41.037 0.635 o
9 4 9 7.955 17.214 2.934 310.665 o
9 4 10 4.655 3.319 3.177 530.331 o
9 4 11 949.397 974.676 19.200 2.186 o
9 4 12 29.292 39.496 3.353 120.372 o
9 4 13 0.068 -0.111 2.275 1940.630 o
9 4 14 213.824 187.404 5.899 17.546 o
9 4 15 2.953 4.726 2.216 808.658 o
9 4 16 602.610 623.848 13.789 4.228 o
9 4 17 82.071 78.064 4.233 48.843 o
9 5 0 894.261 911.324 12.510 2.506 o
9 5 1 937.606 979.810 14.058 2.290 o
9 5 2 237.179 236.048 5.651 14.968 o
9 5 3 446.519 465.850 8.189 6.596 o
9 5 4 1004.800 1062.050 15.484 2.041 o
9 5 5 674.926 703.587 11.219 3.716 o
9 5 6 1619.320 1736.990 24.237 0.941 o
9 5 7 5.534 9.741 2.400 487.840 o
9 5 8 9.568 6.434 2.154 437.890 o
9 5 9 1542.720 1682.060 26.896 0.992 o
9 5 10 65.516 61.741 3.612 62.793 o
9 5 11 8.655 7.450 2.680 404.275 o
9 5 12 3.195 2.950 3.300 578.474 o
9 5 13 62.928 64.252 5.097 58.919 o
9 5 14 2520.530 2691.020 59.370 0.405 o
9 5 15 371.636 370.098 11.801 7.984 o
9 6 0 29.140 32.038 2.875 134.631 o
9 6 1 586.316 614.724 10.273 4.519 o
9 6 2 2270.070 2367.380 29.586 0.545 o
9 6 3 291.961 319.790 7.094 11.045 o
9 6 4 1161.630 1243.370 20.851 1.585 o
9 6 5 378.418 430.576 9.909 7.635 o
9 6 6 354.216 376.756 10.680 8.392 o
9 6 7 1998.750 2124.860 34.337 0.650 o
9 6 8 615.780 683.949 14.245 3.962 o
9 6 9 162.192 170.879 6.516 21.863 o
9 6 10 7.298 8.153 2.619 435.350 o
9 6 11 155.920 159.700 7.119 22.596 o
9 6 12 1061.300 1019.780 46.468 1.441 o
9 6 13 165.419 147.072 14.358 16.652 o
9 7 0 387.903 430.557 11.428 7.316 o
9 7 1 76.096 92.397 5.098 46.595 o
9 7 2 319.358 353.972 11.996 9.055 o
9 7 3 104.012 114.324 4.547 36.206 o
9 7 4 6.887 5.828 2.682 475.496 o
9 7 5 172.677 194.092 6.210 20.122 o
9 7 6 133.949 132.961 7.675 26.028 o
9 7 7 775.581 797.322 22.487 2.767 o
9 7 8 568.694 620.875 22.944 3.881 o
9 7 9 33.719 23.041 2.921 133.947 o
9 7 10 334.203 311.266 13.771 8.825 o
9 7 11 185.721 163.205 7.592 19.576 o
9 8 0 17.715 25.338 2.765 194.035 o
9 8 1 265.166 274.210 8.813 12.238 o
9 8 2 1005.030 1056.590 22.893 1.935 o
9 8 3 64.572 82.133 7.728 45.467 o
9 8 4 1368.000 1357.160 47.582 1.049 o
9 8 5 29.747 31.056 4.726 113.385 o
9 8 6 226.469 230.945 10.727 13.875 o
9 8 7 21.971 12.174 2.733 208.678 o
9 9 0 311.938 341.393 10.806 9.576 o
9 9 1 0.332 2.003 2.253 1459.510 o
9 9 2 666.396 601.487 15.737 3.846 o
10 -17 0 850.462 756.466 21.954 2.627 o
10 -17 1 784.198 703.328 64.099 1.432 o
10 -17 2 1341.320 1180.250 115.365 0.508 o
10 -17 3 622.989 593.191 14.076 4.184 o
10 -17 4 1997.790 1477.140 82.847 0.541 o
10 -17 5 120.487 74.155 4.390 37.245 o
10 -16 0 554.648 533.547 9.445 5.092 o
10 -16 1 3.062 2.294 2.281 903.404 o
10 -16 2 3.978 2.177 2.177 844.401 o
10 -16 3 786.824 821.250 29.663 2.457 o
10 -16 4 116.993 118.970 3.939 33.522 o
10 -16 5 73.864 80.744 3.039 54.109 o
10 -16 6 148.706 129.408 5.741 26.115 o
10 -16 7 90.202 99.372 5.442 40.327 o
10 -16 8 292.689 266.210 13.448 10.290 o
10 -16 9 123.460 126.594 4.777 30.867 o
10 -16 10 235.339 192.267 5.849 16.143 o
10 -16 11 32.329 29.069 3.241 126.511 o
10 -15 0 201.644 253.651 6.246 16.186 o
10 -15 1 256.143 240.474 7.551 13.533 o
10 -15 2 14.823 19.784 2.469 240.060 o
10 -15 3 203.464 228.086 5.509 17.056 o
10 -15 4 337.381 331.622 8.417 9.524 o
10 -15 5 135.775 150.686 4.286 27.442 o
10 -15 6 133.934 137.735 3.738 29.013 o
10 -15 7 561.286 559.204 10.728 4.876 o
10 -15 8 89.212 92.339 4.087 43.923 o
10 -15 9 245.028 266.293 7.218 13.548 o
10 -15 10 21.594 19.762 2.094 200.118 o
10 -15 11 772.484 739.255 17.783 3.026 o
10 -15 12 148.644 146.983 3.840 26.211 o
10 -15 13 176.813 182.637 9.310 18.491 o
10 -15 14 91.124 73.716 4.687 45.400 o
10 -14 0 57.235 57.909 3.680 69.777 o
10 -14 1 1214.080 1159.080 24.606 1.532 o
10 -14 2 382.465 394.014 10.698 7.765 o
10 -14 3 78.265 86.206 4.860 47.449 o
10 -14 4 3602.090 3501.810 57.694 0.243 o
10 -14 5 11.773 17.529 2.808 268.273 o
10 -14 6 32.496 29.042 2.948 129.020 o
10 -14 7 715.127 698.632 17.959 3.311 o
10 -14 8 5.875 6.695 2.330 541.320 o
10 -14 9 993.372 1072.330 25.128 1.903 o
10 -14 10 13.953 13.137 3.296 249.003 o
10 -14 11 911.399 1003.110 38.678 1.795 o
10 -14 12 395.267 434.828 12.807 7.017 o
10 -14 13 78.579 78.804 4.438 49.686 o
10 -14 14 1.449 1.961 2.255 1187.580 o
10 -14 15 136.464 128.067 5.090 28.402 o
10 -14 16 168.585 179.706 11.965 17.336 o
10 -14 17 2158.430 1720.580 39.220 0.650 o
10 -13 0 134.225 149.724 7.779 24.889 o
10 -13 1 41.904 53.887 5.296 76.898 o
10 -13 2 1347.700 1407.940 36.977 1.151 o
10 -13 3 311.380 301.365 11.668 9.866 o
10 -13 4 828.598 883.148 20.262 2.561 o
10 -13 5 2443.390 2615.950 50.145 0.442 o
10 -13 6 139.875 134.078 5.457 27.195 o
10 -13 7 112.438 107.844 4.345 35.261 o
10 -13 8 129.595 143.420 4.754 28.544 o
10 -13 9 318.389 330.752 8.019 10.042 o
10 -13 10 4453.940 4729.030 82.097 0.153 o
10 -13 11 196.973 214.336 10.365 15.775 o
10 -13 12 390.393 433.723 9.712 7.449 o
10 -13 13 526.496 565.636 11.603 5.075 o
10 -13 14 162.195 181.412 5.272 22.060 o
10 -13 15 1102.390 1072.260 19.015 1.815 o
10 -13 16 376.707 398.339 9.530 7.966 o
10 -13 17 276.081 255.393 6.592 12.705 o
10 -13 18 374.154 328.641 13.789 7.966 o
10 -12 0 230.776 259.031 7.902 14.106 o
10 -12 1 2948.320 3046.060 51.672 0.333 o
10 -12 2 3216.210 3337.360 56.190 0.284 o
10 -12 3 1004.830 1038.860 20.494 1.991 o
10 -12 4 3586.300 3796.810 63.325 0.230 o
10 -12 5 1265.290 1262.830 23.921 1.420 o
10 -12 6 96.720 121.076 5.376 36.053 o
10 -12 7 314.142 315.423 8.813 10.204 o
10 -12 8 578.051 580.767 15.360 4.429 o
10 -12 9 391.354 386.320 8.677 7.918 o
10 -12 10 2.627 5.821 2.300 766.001 o
10 -12 11 770.746 756.560 17.784 3.002 o
10 -12 12 1.004 1.026 3.092 870.091 o
10 -12 13 834.151 886.748 19.166 2.569 o
10 -12 14 511.339 514.328 11.050 5.458 o
10 -12 15 18.181 23.432 2.718 197.772 o
10 -12 16 1008.390 1140.360 23.890 1.843 o
10 -12 17 73.242 75.836 3.824 54.059 o
10 -12 18 152.996 174.988 5.213 23.329 o
10 -12 19 40.141 25.966 2.549 118.103 o
10 -12 20 93.671 73.998 3.584 46.319 o
10 -11 0 261.372 296.505 8.150 12.153 o
10 -11 1 2978.120 2959.570 44.968 0.342 o
10 -11 2 1287.610 1268.580 22.241 1.407 o
10 -11 3 157.832 190.798 11.146 18.243 o
10 -11 4 910.143 918.437 18.613 2.348 o
10 -11 5 629.169 684.204 14.968 3.859 o
10 -11 6 163.114 189.180 7.562 20.349 o
10 -11 7 671.211 645.325 13.160 3.816 o
10 -11 8 516.652 537.265 12.300 5.230 o
10 -11 9 96.869 130.761 4.960 35.471 o
10 -11 10 764.057 754.677 14.048 3.139 o
10 -11 11 83.298 84.899 5.245 45.064 o
10 -11 12 141.341 129.490 8.459 24.570 o
10 -11 13 83.677 99.949 6.440 40.174 o
10 -11 14 793.974 840.866 16.592 2.819 o
10 -11 15 35.842 43.561 3.387 103.691 o
10 -11 16 24.604 30.287 2.921 150.660 o
10 -11 17 3120.760 3436.550 62.314 0.283 o
10 -11 18 296.275 302.696 7.030 11.179 o
10 -11 19 1023.250 957.008 26.917 1.917 o
10 -11 20 292.202 315.801 13.178 9.787 o
10 -11 21 14.429 18.119 1.939 266.180 o
10 -10 0 350.318 363.914 10.340 8.634 o
10 -10 1 1323.070 1282.440 25.193 1.338 o
10 -10 2 289.481 294.068 9.112 11.096 o
10 -10 3 7.304 7.492 3.231 384.628 o
10 -10 4 1908.550 1859.020 33.889 0.733 o
10 -10 5 35.279 46.040 3.988 98.222 o
10 -10 6 1075.560 1035.860 19.032 1.890 o
10 -10 7 151.392 157.484 6.056 23.918 o
10 -10 8 573.482 621.713 14.021 4.403 o
10 -10 9 1153.240 1202.890 26.122 1.562 o
10 -10 10 1360.420 1304.610 21.889 1.317 o
10 -10 11 1915.100 1982.010 35.094 0.703 o
10 -10 12 86.862 109.869 5.821 39.150 o
10 -10 13 1077.050 1105.130 24.327 1.757 o
10 -10 14 41.789 51.745 4.288 84.204 o
10 -10 15 656.544 688.899 21.854 3.398 o
10 -10 16 27.818 35.811 3.119 130.616 o
10 -10 17 162.960 150.977 5.015 23.655 o
10 -10 18 652.292 665.919 15.303 3.773 o
10 -10 19 69.960 61.127 5.964 53.195 o
10 -10 20 2.063 5.244 3.145 612.342 o
10 -10 21 4.579 0.182 2.850 685.756 o
10 -10 22 1338.620 1077.640 35.432 1.315 o
10 -9 0 257.227 240.890 6.462 13.757 o
10 -9 1 346.605 325.876 10.214 9.104 o
10 -9 2 259.387 265.569 6.846 13.085 o
10 -9 3 29.748 29.036 2.736 138.577 o
10 -9 4 21.123 20.433 2.580 192.356 o
10 -9 5 744.476 744.617 13.072 3.261 o
10 -9 6 1497.860 1495.180 24.386 1.101 o
10 -9 7 1237.520 1215.840 17.252 1.538 o
10 -9 8 743.955 759.526 13.431 3.224 o
10 -9 9 6.531 9.766 2.501 445.671 o
10 -9 10 4.172 7.486 2.663 548.814 o
10 -9 11 673.125 648.495 14.278 3.755 o
10 -9 12 176.463 195.373 6.707 19.529 o
10 -9 13 1059.520 1127.490 21.702 1.804 o
10 -9 14 83.994 103.425 4.860 42.557 o
10 -9 15 1000.140 992.261 24.755 1.968 o
10 -9 16 479.358 480.817 10.906 5.940 o
10 -9 17 201.700 203.614 6.219 17.686 o
10 -9 18 602.385 631.226 16.854 4.051 o
10 -9 19 81.408 78.933 4.158 49.082 o
10 -9 20 903.045 884.604 23.361 2.299 o
10 -9 21 639.400 562.269 14.918 4.138 o
10 -9 22 358.461 309.371 8.732 9.259 o
10 -8 0 108.896 115.663 4.013 35.520 o
10 -8 1 7343.600 7117.080 89.779 0.067 o
10 -8 2 416.031 364.413 12.000 7.317 o
10 -8 3 77.349 89.634 4.131 48.618 o
10 -8 4 723.541 711.901 16.813 3.293 o
10 -8 5 1121.650 1053.380 20.691 1.779 o
10 -8 6 2935.200 2870.340 47.276 0.351 o
10 -8 7 208.853 231.348 6.060 16.468 o
10 -8 8 30.892 39.897 3.006 119.525 o
10 -8 9 318.007 299.654 7.835 10.478 o
10 -8 10 277.656 263.803 8.516 12.068 o
10 -8 11 2240.520 2180.850 42.529 0.550 o
10 -8 12 1407.700 1424.780 23.616 1.206 o
10 -8 13 708.725 748.400 14.169 3.368 o
10 -8 14 62.830 66.576 3.735 62.617 o
10 -8 15 194.485 203.148 5.922 18.294 o
10 -8 16 102.764 118.318 5.097 35.373 o
10 -8 17 2797.610 2976.400 57.523 0.349 o
10 -8 18 6.472 12.346 3.082 365.169 o
10 -8 19 22.705 19.654 3.552 167.841 o
10 -8 20 610.034 618.301 19.094 3.920 o
10 -8 21 144.016 148.348 4.803 26.163 o
10 -8 22 451.454 453.041 9.515 6.515 o
10 -7 0 163.584 158.622 5.951 22.659 o
10 -7 1 411.885 398.946 8.744 7.485 o
10 -7 2 148.072 130.176 4.740 26.867 o
10 -7 3 434.185 411.835 8.751 7.068 o
10 -7 4 122.426 114.350 4.938 31.992 o
10 -7 5 1668.110 1544.340 24.683 0.967 o
10 -7 6 5845.490 5554.960 73.511 0.104 o
10 -7 7 751.010 766.286 18.042 3.046 o
10 -7 8 568.826 518.383 10.447 4.990 o
10 -7 9 901.884 879.646 14.459 2.496 o
10 -7 10 1997.070 1938.010 28.299 0.701 o
10 -7 11 580.378 576.351 11.806 4.622 o
10 -7 12 50.778 52.112 3.511 78.589 o
10 -7 13 714.960 708.862 13.499 3.447 o
10 -7 14 16.967 16.986 2.599 230.440 o
10 -7 15 2095.560 2125.590 36.943 0.612 o
10 -7 16 53.150 57.731 4.060 71.673 o
10 -7 17 60.294 61.300 4.387 63.892 o
10 -7 18 563.935 592.039 17.775 4.332 o
10 -7 19 168.598 165.280 6.031 21.812 o
10 -7 20 49.058 45.739 3.921 81.638 o
10 -7 21 207.575 202.794 5.865 17.466 o
10 -7 22 0.443 0.666 1.611 2750.600 o
10 -7 23 530.169 373.464 13.825 5.729 o
10 -6 0 326.574 316.495 7.262 10.131 o
10 -6 1 2457.000 2401.430 32.759 0.491 o
10 -6 2 362.902 352.814 8.676 8.732 o
10 -6 3 256.896 253.453 6.140 13.584 o
10 -6 4 3504.750 3458.390 53.833 0.255 o
10 -6 5 2236.730 2222.030 28.214 0.576 o
10 -6 6 239.271 238.072 5.887 14.761 o
10 -6 7 124.000 119.512 4.144 31.947 o
10 -6 8 403.596 393.343 8.718 7.659 o
10 -6 9 128.568 127.036 10.281 24.119 o
10 -6 10 331.242 346.004 8.700 9.458 o
10 -6 11 366.218 370.650 10.092 8.315 o
10 -6 12 40.950 40.269 3.534 97.300 o
10 -6 13 2806.140 2852.710 63.035 0.347 o
10 -6 14 3.635 6.429 3.527 456.281 o
10 -6 15 105.433 132.546 5.567 32.796 o
10 -6 16 40.674 45.626 3.511 94.040 o
10 -6 17 259.684 263.652 7.239 13.018 o
10 -6 18 429.002 432.965 14.135 6.451 o
10 -6 19 1764.350 1814.500 33.437 0.806 o
10 -6 20 0.461 5.307 2.871 801.134 o
10 -6 21 400.698 371.703 15.421 7.007 o
10 -6 22 483.311 442.284 24.177 4.776 o
10 -6 23 11.645 14.014 2.446 306.151 o
10 -5 0 779.572 803.119 14.304 2.988 o
10 -5 1 3135.590 3020.510 41.535 0.322 o
10 -5 2 331.679 336.812 8.076 9.645 o
10 -5 3 3065.250 2962.550 38.955 0.336 o
10 -5 4 2542.860 2511.260 40.945 0.450 o
10 -5 5 122.791 127.794 5.560 30.143 o
10 -5 6 7179.960 6991.330 146.724 0.064 o
10 -5 7 3322.910 3236.110 62.641 0.273 o
10 -5 8 0.560 6.504 2.888 737.001 o
10 -5 9 526.563 492.849 13.931 5.219 o
10 -5 10 868.042 836.085 20.591 2.511 o
10 -5 11 3214.590 3233.210 44.015 0.300 o
10 -5 12 944.164 969.306 17.419 2.234 o
10 -5 13 192.160 196.543 7.441 18.018 o
10 -5 14 2042.860 1994.600 35.364 0.654 o
10 -5 15 105.936 105.219 4.912 36.369 o
10 -5 16 16.998 16.192 2.956 223.252 o
10 -5 17 151.843 180.556 5.923 22.752 o
10 -5 18 53.562 46.633 4.524 73.928 o
10 -5 19 674.329 696.924 42.336 2.323 o
10 -5 20 19.562 11.094 2.022 248.321 o
10 -5 21 852.114 671.246 140.269 0.447 o
10 -5 22 485.047 386.578 20.441 5.389 o
10 -5 23 1.398 -0.617 1.903 1810.190 o
10 -4 0 1526.970 1492.320 18.726 1.109 o
10 -4 1 189.254 192.623 6.010 19.000 o
10 -4 2 64.033 85.210 4.533 54.550 o
10 -4 3 1252.640 1245.330 20.052 1.479 o
10 -4 4 2251.090 2152.960 38.350 0.561 o
10 -4 5 2351.850 2325.480 46.834 0.496 o
10 -4 6 781.250 748.069 15.001 3.062 o
10 -4 7 1672.010 1698.550 25.353 0.917 o
10 -4 8 48.002 48.434 3.496 83.420 o
10 -4 9 329.317 310.602 9.121 9.839 o
10 -4 10 479.191 471.795 12.877 5.829 o
10 -4 11 437.435 427.711 8.831 6.909 o
10 -4 12 284.886 353.916 8.446 10.529 o
10 -4 13 144.191 155.036 5.289 25.404 o
10 -4 14 1686.390 1671.860 26.930 0.909 o
10 -4 15 912.401 895.610 18.582 2.371 o
10 -4 16 307.984 298.433 8.107 10.716 o
10 -4 17 123.674 119.442 6.140 30.083 o
10 -4 18 7.137 6.967 3.374 380.162 o
10 -4 19 9.044 5.402 3.802 323.393 o
10 -4 20 263.187 209.377 19.664 9.595 o
10 -4 21 0.099 1.373 1.454 3144.300 o
10 -4 22 56.017 42.370 4.200 75.179 o
10 -3 0 4304.860 4539.620 60.033 0.171 o
10 -3 1 356.105 313.880 8.046 9.358 o
10 -3 2 883.257 800.454 16.311 2.619 o
10 -3 3 349.429 372.301 13.920 7.991 o
10 -3 4 155.377 138.498 9.381 21.844 o
10 -3 5 1295.330 1267.130 29.860 1.328 o
10 -3 6 379.267 400.374 19.036 6.536 o
10 -3 7 141.982 148.202 9.145 22.861 o
10 -3 8 7.706 6.068 2.578 457.777 o
10 -3 9 1.356 5.902 2.166 933.774 o
10 -3 10 3591.350 3508.610 47.535 0.250 o
10 -3 11 866.113 912.376 16.752 2.504 o
10 -3 12 41.023 39.501 3.315 99.178 o
10 -3 13 188.820 222.570 6.445 17.818 o
10 -3 14 12.796 21.335 3.966 203.146 o
10 -3 15 966.579 972.182 27.020 2.000 o
10 -3 16 555.407 503.378 16.090 4.797 o
10 -3 17 148.766 131.980 6.651 25.224 o
10 -3 18 1066.680 1084.600 88.645 0.788 o
10 -3 19 342.690 341.478 14.800 8.195 o
10 -3 20 153.201 146.904 7.730 23.040 o
10 -3 21 616.724 541.759 14.244 4.370 o
10 -3 22 3.447 2.580 1.718 1038.940 o
10 -2 0 863.233 838.128 15.306 2.644 o
10 -2 1 6.438 2.025 2.692 564.782 o
10 -2 2 1.363 8.656 2.886 615.757 o
10 -2 3 1659.070 1513.270 26.130 0.976 o
10 -2 4 2159.720 1867.600 36.987 0.632 o
10 -2 5 575.320 566.548 14.503 4.544 o
10 -2 6 1133.370 1015.010 40.545 1.476 o
10 -2 7 997.831 1009.420 18.849 2.058 o
10 -2 8 3281.320 3222.480 48.300 0.290 o
10 -2 9 1.439 11.420 2.997 527.123 o
10 -2 10 5422.960 5306.410 99.107 0.111 o
10 -2 11 3577.060 3494.090 69.381 0.237 o
10 -2 12 0.110 1.068 3.521 767.794 o
10 -2 13 3.902 4.999 2.738 608.067 o
10 -2 14 25.295 29.854 3.260 144.638 o
10 -2 15 7.306 5.208 2.474 496.568 o
10 -2 16 11.151 10.127 3.272 296.456 o
10 -2 17 171.477 168.853 7.339 20.633 o
10 -2 18 12.440 11.539 2.667 301.879 o
10 -2 19 111.999 80.351 5.931 36.413 o
10 -2 20 770.148 748.719 19.411 2.965 o
10 -2 21 84.368 75.056 4.470 48.058 o
10 -1 0 311.583 250.030 7.124 11.496 o
10 -1 1 1197.720 1176.690 16.709 1.621 o
10 -1 2 1285.900 1186.110 15.947 1.507 o
10 -1 3 666.496 669.189 11.062 3.851 o
10 -1 4 688.058 665.529 11.767 3.728 o
10 -1 5 9.021 14.236 2.815 323.573 o
10 -1 6 479.350 514.490 24.237 4.564 o
10 -1 7 12520.600 11950.400 146.439 0.025 o
10 -1 8 284.497 323.581 8.094 11.024 o
10 -1 9 589.252 601.131 12.443 4.448 o
10 -1 10 1258.600 1257.780 24.501 1.424 o
10 -1 11 198.545 203.600 6.862 17.632 o
10 -1 12 1483.650 1515.660 41.735 0.982 o
10 -1 13 994.951 873.764 26.786 2.043 o
10 -1 14 67.292 78.566 7.286 46.514 o
10 -1 15 577.576 562.350 18.399 4.298 o
10 -1 16 0.688 0.116 2.441 1453.370 o
10 -1 17 263.811 236.798 13.276 11.516 o
10 -1 18 130.835 132.400 6.150 27.983 o
10 -1 19 1.934 3.804 2.150 1002.760 o
10 -1 20 395.069 449.135 17.583 6.306 o
10 -1 21 423.620 327.623 18.149 6.584 o
10 0 0 9694.740 9536.210 90.021 0.040 o
10 0 1 713.474 701.788 12.170 3.510 o
10 0 2 826.980 751.810 11.232 2.980 o
10 0 3 274.520 204.336 5.223 14.073 o
10 0 4 3.934 5.342 2.091 730.652 o
10 0 5 2103.120 2199.550 30.520 0.615 o
10 0 6 163.558 154.055 5.301 23.270 o
10 0 7 461.458 478.434 12.400 6.017 o
10 0 8 2275.530 2239.710 40.247 0.539 o
10 0 9 5.172 8.378 2.838 470.858 o
10 0 10 329.380 322.004 14.996 8.555 o
10 0 11 632.521 615.662 17.208 3.913 o
10 0 12 177.121 185.538 8.041 19.128 o
10 0 13 68.413 72.389 5.065 54.061 o
10 0 14 248.611 255.031 9.644 12.927 o
10 0 15 61.720 63.328 4.540 61.811 o
10 0 16 802.048 772.187 26.000 2.608 o
10 0 17 637.917 649.635 18.291 3.745 o
10 0 18 170.481 183.745 13.328 16.175 o
10 0 19 15.113 13.492 2.137 278.001 o
10 0 20 48.367 46.788 3.006 86.175 o
10 1 0 4.000 9.047 2.088 608.935 o
10 1 1 1072.790 1096.270 13.827 1.902 o
10 1 2 40.093 52.961 3.020 92.584 o
10 1 3 361.385 323.680 8.329 9.102 o
10 1 4 33.525 45.112 3.373 106.414 o
10 1 5 577.963 577.814 13.140 4.565 o
10 1 6 687.826 752.348 14.786 3.428 o
10 1 7 44.453 38.732 3.420 94.128 o
10 1 8 4.215 8.724 3.499 413.163 o
10 1 9 223.275 208.440 7.798 15.698 o
10 1 10 809.775 814.104 22.659 2.639 o
10 1 11 404.452 443.678 13.449 6.763 o
10 1 12 24.563 24.946 4.921 128.816 o
10 1 13 77.837 77.934 5.180 48.481 o
10 1 14 168.951 149.802 7.594 21.509 o
10 1 15 87.189 113.846 5.136 39.671 o
10 1 16 360.926 366.827 9.661 8.505 o
10 1 17 137.400 144.358 5.925 26.464 o
10 1 18 346.388 310.326 10.068 9.296 o
10 2 0 46.762 41.660 2.533 93.498 o
10 2 1 278.719 284.352 7.098 12.004 o
10 2 2 53.122 40.987 2.909 84.461 o
10 2 3 184.720 190.698 5.327 19.697 o
10 2 4 2240.450 2323.520 64.913 0.473 o
10 2 5 588.990 594.792 11.807 4.500 o
10 2 6 1326.830 1329.850 29.144 1.276 o
10 2 7 198.194 232.102 7.319 16.606 o
10 2 8 65.470 68.431 5.014 56.680 o
10 2 9 945.883 968.459 20.207 2.181 o
10 2 10 182.019 189.342 6.980 19.202 o
10 2 11 2.161 2.832 2.912 748.013 o
10 2 12 528.856 596.796 11.645 4.932 o
10 2 13 21.101 31.082 2.761 164.380 o
10 2 14 1243.470 1261.590 20.140 1.479 o
10 2 15 18.058 15.785 1.774 246.346 o
10 2 16 116.235 101.385 4.923 34.504 o
10 2 17 257.311 250.719 6.968 13.429 o
10 3 0 653.522 686.960 8.707 3.942 o
10 3 1 20.018 24.911 2.346 190.307 o
10 3 2 732.120 751.796 11.400 3.341 o
10 3 3 419.580 386.898 8.734 7.461 o
10 3 4 852.785 891.404 17.398 2.554 o
10 3 5 189.030 200.623 6.839 18.369 o
10 3 6 318.852 358.558 13.756 8.672 o
10 3 7 378.317 381.084 18.782 6.699 o
10 3 8 244.782 283.352 9.315 12.651 o
10 3 9 49.289 45.552 3.674 82.730 o
10 3 10 95.617 93.456 4.451 41.217 o
10 3 11 29.928 40.339 2.956 121.595 o
10 3 12 1387.920 1513.750 23.793 1.184 o
10 3 13 379.546 415.536 8.604 7.879 o
10 3 14 250.234 238.256 6.061 14.211 o
10 3 15 200.867 199.005 5.259 18.241 o
10 3 16 3.648 3.051 2.183 831.935 o
10 4 0 241.066 228.969 5.417 15.008 o
10 4 1 318.872 313.427 6.318 10.503 o
10 4 2 351.672 353.884 6.709 9.187 o
10 4 3 1837.310 1859.630 25.451 0.792 o
10 4 4 82.397 80.431 3.531 49.519 o
10 4 5 1.280 3.166 2.371 1045.810 o
10 4 6 89.291 109.648 4.094 41.206 o
10 4 7 106.086 103.945 3.836 37.749 o
10 4 8 511.717 609.593 12.867 4.943 o
10 4 9 1263.340 1408.260 25.062 1.336 o
10 4 10 1042.250 1106.660 19.978 1.873 o
10 4 11 104.843 115.952 4.011 36.415 o
10 4 12 87.193 80.635 3.806 47.135 o
10 4 13 96.956 83.831 8.007 35.722 o
10 5 0 444.258 457.569 8.730 6.636 o
10 5 1 2341.880 2422.020 31.962 0.517 o
10 5 2 553.696 606.707 12.213 4.682 o
10 5 3 1.651 4.454 2.528 850.441 o
10 5 4 6.766 10.165 2.504 433.304 o
10 5 5 217.892 224.559 6.984 15.850 o
10 5 6 10.107 14.436 2.774 308.582 o
10 5 7 826.928 950.083 21.052 2.458 o
10 5 8 58.630 65.349 4.121 64.563 o
10 5 9 838.039 893.114 19.209 2.549 o
10 5 10 2.624 5.788 2.446 729.813 o
10 5 11 21.357 22.770 2.471 186.786 o
10 5 12 351.041 302.321 11.875 8.960 o
10 6 0 728.198 764.648 15.970 3.200 o
10 6 1 13.103 10.032 2.999 287.090 o
10 6 2 48.961 54.171 5.580 69.262 o
10 6 3 89.431 105.978 5.333 39.812 o
10 6 4 310.461 320.577 9.135 10.174 o
10 6 5 119.469 100.534 4.509 34.365 o
10 6 6 63.873 64.323 4.468 60.445 o
10 6 7 268.330 289.820 21.875 8.106 o
10 6 8 318.777 303.015 13.313 9.316 o
10 6 9 44.922 46.436 3.261 89.341 o
10 7 0 323.838 351.376 8.301 9.625 o
10 7 1 21.393 19.790 2.342 196.968 o
10 7 2 22.372 20.343 2.744 183.048 o
10 7 3 36.148 39.485 2.971 109.662 o
10 7 4 15.663 15.371 2.687 245.420 o
10 7 5 36.283 24.451 2.589 128.485 o
10 7 6 60.262 58.684 3.014 69.237 o
10 8 0 638.823 547.072 72.641 1.365 o
11 -16 0 0.068 1.794 2.878 1056.830 o
11 -16 1 0.677 9.815 2.372 743.590 o
11 -16 2 1862.490 1907.570 36.082 0.734 o
11 -16 3 2.071 9.105 3.467 472.122 o
11 -16 4 61.643 74.227 6.270 52.978 o
11 -16 5 1106.150 1062.670 163.608 0.320 o
11 -16 6 66.608 55.052 4.157 62.599 o
11 -15 0 27.872 30.700 3.874 128.307 o
11 -15 1 126.976 156.739 6.422 26.594 o
11 -15 2 800.551 802.744 31.937 2.367 o
11 -15 3 965.161 891.237 26.956 2.079 o
11 -15 4 379.323 363.479 16.206 7.224 o
11 -15 5 217.445 238.360 10.183 14.321 o
11 -15 6 578.798 523.652 19.925 4.300 o
11 -15 7 1491.940 1504.950 35.436 1.028 o
11 -15 8 259.559 231.296 19.593 9.473 o
11 -15 9 150.824 130.752 4.829 26.404 o
11 -15 10 194.587 191.792 5.939 18.675 o
11 -15 11 22.012 36.615 2.278 156.321 o
11 -14 0 214.215 213.692 6.343 16.573 o
11 -14 1 297.469 324.374 7.019 10.835 o
11 -14 2 1.692 6.051 1.829 1001.890 o
11 -14 3 104.869 112.082 3.834 37.051 o
11 -14 4 768.785 803.646 13.319 3.050 o
11 -14 5 47.551 40.093 2.342 94.291 o
11 -14 6 53.530 62.654 3.181 72.550 o
11 -14 7 8.515 8.872 1.995 445.751 o
11 -14 8 24.564 29.780 2.804 153.180 o
11 -14 9 1093.680 1143.280 23.005 1.723 o
11 -14 10 442.353 479.714 13.882 6.072 o
11 -14 11 140.338 146.382 4.624 26.893 o
11 -14 12 3.832 2.445 1.671 1007.830 o
11 -14 13 0.015 0.733 1.339 4361.050 o
11 -14 14 727.603 627.610 25.746 3.059 o
11 -13 0 176.263 186.480 5.975 20.254 o
11 -13 1 595.914 607.088 18.186 4.078 o
11 -13 2 2265.450 2290.830 44.093 0.526 o
11 -13 3 147.155 152.232 5.435 25.118 o
11 -13 4 316.798 323.562 9.557 9.905 o
11 -13 5 3.501 5.385 2.273 720.944 o
11 -13 6 1.325 4.475 2.152 1042.910 o
11 -13 7 633.477 675.328 17.612 3.738 o
11 -13 8 831.558 943.041 16.989 2.550 o
11 -13 9 351.279 394.287 9.120 8.501 o
11 -13 10 1097.650 1211.220 21.470 1.687 o
11 -13 11 336.692 350.317 9.009 9.245 o
11 -13 12 134.485 132.439 6.100 27.509 o
11 -13 13 115.811 126.445 5.194 31.838 o
11 -13 14 77.541 79.243 4.509 49.871 o
11 -13 15 788.520 756.919 43.936 2.009 o
11 -13 16 610.355 498.171 15.787 4.461 o
11 -12 0 1344.960 1327.100 27.420 1.276 o
11 -12 1 3.593 9.733 2.856 499.031 o
11 -12 2 22.546 23.869 3.223 165.815 o
11 -12 3 1209.620 1238.120 25.898 1.476 o
11 -12 4 836.847 884.892 24.306 2.428 o
11 -12 5 5.834 9.105 2.784 446.124 o
11 -12 6 455.691 498.763 12.637 5.951 o
11 -12 7 14.276 11.681 2.516 284.575 o
11 -12 8 1333.730 1347.830 24.903 1.298 o
11 -12 9 537.432 559.147 11.313 5.030 o
11 -12 10 781.492 860.339 16.490 2.831 o
11 -12 11 1494.260 1619.600 28.098 1.037 o
11 -12 12 24.229 22.701 3.091 163.583 o
11 -12 13 18.396 15.068 2.644 225.658 o
11 -12 14 1.260 1.401 2.155 1366.050 o
11 -12 15 94.325 104.318 4.598 39.832 o
11 -12 16 812.777 785.842 18.780 2.787 o
11 -12 17 435.944 437.830 11.528 6.618 o
11 -11 0 285.667 342.757 9.156 10.521 o
11 -11 1 1244.170 1305.960 31.255 1.344 o
11 -11 2 2.360 6.280 2.879 627.753 o
11 -11 3 236.786 222.364 7.357 14.834 o
11 -11 4 1658.760 1687.870 35.670 0.877 o
11 -11 5 38.069 36.379 3.548 104.789 o
11 -11 6 220.797 217.670 6.817 15.935 o
11 -11 7 15.885 20.144 3.127 212.425 o
11 -11 8 431.664 419.796 9.982 6.938 o
11 -11 9 2584.460 2738.650 56.892 0.396 o
11 -11 10 1.415 7.900 3.576 496.701 o
11 -11 11 577.723 646.795 15.363 4.228 o
11 -11 12 1310.030 1346.790 33.665 1.239 o
11 -11 13 108.040 127.645 9.383 27.707 o
11 -11 14 1678.920 1822.810 61.858 0.690 o
11 -11 15 287.304 321.880 14.634 9.462 o
11 -11 16 28.009 25.687 3.158 143.998 o
11 -11 17 396.417 422.779 11.867 7.198 o
11 -11 18 777.560 739.573 66.883 1.354 o
11 -10 0 260.283 272.252 7.306 12.818 o
11 -10 1 22.973 23.679 2.891 170.007 o
11 -10 2 28.567 24.864 2.990 145.652 o
11 -10 3 1288.560 1267.920 21.543 1.413 o
11 -10 4 0.225 1.450 2.574 1278.880 o
11 -10 5 52.654 59.427 5.529 65.002 o
11 -10 6 474.603 456.207 9.818 6.205 o
11 -10 7 1051.160 998.346 17.470 1.987 o
11 -10 8 42.596 50.421 3.323 89.435 o
11 -10 9 155.398 155.604 5.000 24.240 o
11 -10 10 1685.480 1715.600 30.409 0.882 o
11 -10 11 172.658 197.849 6.206 19.975 o
11 -10 12 35.877 49.471 3.469 98.423 o
11 -10 13 263.221 267.589 8.328 12.545 o
11 -10 14 108.359 114.822 6.209 33.139 o
11 -10 15 2.103 4.626 2.943 678.182 o
11 -10 16 0.427 2.228 2.758 1039.680 o
11 -10 17 2.023 3.556 2.063 1045.740 o
11 -10 18 76.383 82.688 4.172 50.352 o
11 -10 19 56.464 42.352 2.095 82.804 o
11 -9 0 27.134 27.380 2.535 151.661 o
11 -9 1 0.334 5.310 2.168 1130.860 o
11 -9 2 476.976 482.226 8.368 6.132 o
11 -9 3 6106.370 5800.910 78.042 0.096 o
11 -9 4 725.840 757.812 13.077 3.310 o
11 -9 5 2.108 5.315 2.333 826.582 o
11 -9 6 1031.870 1009.570 16.158 2.030 o
11 -9 7 19.150 20.483 2.747 200.116 o
11 -9 8 342.114 363.954 7.537 9.187 o
11 -9 9 48.680 47.191 2.814 86.388 o
11 -9 10 194.377 203.617 6.513 18.048 o
11 -9 11 530.156 526.700 10.351 5.279 o
11 -9 12 1.988 4.841 2.502 807.073 o
11 -9 13 3.720 6.238 2.342 661.911 o
11 -9 14 84.845 68.790 3.558 50.895 o
11 -9 15 20.905 16.942 3.597 181.115 o
11 -9 16 1281.790 1350.200 52.452 1.052 o
11 -9 17 46.089 43.273 3.750 87.237 o
11 -9 18 77.159 71.364 3.563 53.799 o
11 -9 19 224.829 223.313 5.741 15.901 o
11 -9 20 73.214 66.585 4.288 55.252 o
11 -8 0 453.843 464.840 8.309 6.504 o
11 -8 1 3640.700 3634.680 45.409 0.243 o
11 -8 2 144.079 144.276 4.978 26.303 o
11 -8 3 70.065 71.736 3.789 56.784 o
11 -8 4 6611.950 6316.800 110.951 0.079 o
11 -8 5 16.098 22.920 2.937 206.966 o
11 -8 6 1188.540 1217.760 20.639 1.569 o
11 -8 7 77.083 68.488 3.668 54.314 o
11 -8 8 294.884 273.021 6.905 11.700 o
11 -8 9 2460.520 2448.100 41.854 0.470 o
11 -8 10 193.637 194.165 7.345 18.044 o
11 -8 11 131.607 120.190 5.664 29.240 o
11 -8 12 690.191 682.477 18.197 3.438 o
11 -8 13 70.534 63.783 3.493 59.432 o
11 -8 14 138.960 135.212 5.489 27.217 o
11 -8 15 279.426 267.256 7.855 12.105 o
11 -8 16 26.764 25.756 2.806 152.498 o
11 -8 17 340.810 347.575 8.682 9.235 o
11 -8 18 58.253 67.264 8.360 48.192 o
11 -8 19 522.229 458.646 12.729 5.494 o
11 -8 20 16.261 18.613 2.146 241.232 o
11 -7 0 0.483 4.466 2.436 1035.630 o
11 -7 1 2.875 5.349 2.128 811.300 o
11 -7 2 236.884 216.817 5.542 15.492 o
11 -7 3 683.085 660.253 10.867 3.795 o
11 -7 4 11.364 19.549 2.404 277.029 o
11 -7 5 1705.160 1633.020 27.911 0.905 o
11 -7 6 1018.170 1019.490 21.241 1.972 o
11 -7 7 18.466 12.308 3.500 210.421 o
11 -7 8 2118.370 2123.780 67.841 0.508 o
11 -7 9 375.693 382.275 19.258 6.644 o
11 -7 10 22.527 15.674 4.996 146.162 o
11 -7 11 111.869 118.153 7.009 31.126 o
11 -7 12 344.455 329.826 11.981 8.800 o
11 -7 13 1182.160 1184.160 24.872 1.553 o
11 -7 14 167.161 152.950 5.817 22.664 o
11 -7 15 544.078 511.777 10.587 5.211 o
11 -7 16 20.718 19.226 2.963 190.241 o
11 -7 17 63.312 50.842 3.721 67.710 o
11 -7 18 161.512 102.782 44.634 4.356 o
11 -7 19 555.398 551.481 21.060 4.272 o
11 -7 20 11.138 4.018 1.801 454.617 o
11 -6 0 3217.200 3313.510 45.317 0.294 o
11 -6 1 1046.910 1036.940 24.966 1.847 o
11 -6 2 984.854 984.027 16.551 2.145 o
11 -6 3 291.986 315.420 9.869 10.568 o
11 -6 4 1.317 2.278 2.500 1042.270 o
11 -6 5 22.364 24.696 2.547 175.933 o
11 -6 6 271.541 310.444 8.716 11.473 o
11 -6 7 193.944 164.766 6.109 19.649 o
11 -6 8 60.747 53.715 3.821 68.208 o
11 -6 9 39.534 36.284 3.880 99.978 o
11 -6 10 602.613 624.123 15.645 4.134 o
11 -6 11 118.337 118.039 5.710 31.587 o
11 -6 12 64.802 57.749 4.229 62.659 o
11 -6 13 829.977 818.100 20.856 2.631 o
11 -6 14 847.770 784.825 33.673 2.228 o
11 -6 15 502.530 472.554 14.041 5.506 o
11 -6 16 707.237 652.953 25.314 3.106 o
11 -6 17 57.927 54.305 4.007 69.449 o
11 -6 18 34.329 23.362 4.697 112.311 o
11 -6 19 47.166 28.709 7.916 65.587 o
11 -6 20 8.818 9.351 2.852 366.645 o
11 -5 0 131.675 138.005 5.279 28.222 o
11 -5 1 280.760 242.844 6.025 12.878 o
11 -5 2 315.068 278.710 7.928 10.826 o
11 -5 3 602.629 612.067 11.934 4.350 o
11 -5 4 993.438 915.501 15.568 2.214 o
11 -5 5 184.846 163.601 5.938 20.507 o
11 -5 6 771.465 755.325 15.556 3.068 o
11 -5 7 1806.390 1893.410 34.083 0.767 o
11 -5 8 720.108 706.100 13.429 3.433 o
11 -5 9 344.519 360.047 9.491 8.911 o
11 -5 10 736.204 692.321 14.704 3.353 o
11 -5 11 5.947 13.288 3.445 337.652 o
11 -5 12 1347.060 1258.040 31.247 1.270 o
11 -5 13 2121.650 1998.220 49.494 0.585 o
11 -5 14 567.437 497.685 15.765 4.754 o
11 -5 15 1056.000 992.105 26.195 1.848 o
11 -5 16 165.702 141.856 6.484 22.949 o
11 -5 17 933.426 803.667 27.796 2.208 o
11 -5 18 189.832 159.394 5.900 20.287 o
11 -5 19 122.169 88.308 17.411 17.819 o
11 -5 20 302.513 214.077 9.434 11.838 o
11 -4 0 89.249 81.670 4.107 45.698 o
11 -4 1 88.840 71.153 4.469 47.102 o
11 -4 2 178.783 213.737 7.472 18.323 o
11 -4 3 329.639 292.843 8.427 10.166 o
11 -4 4 3675.020 3729.120 58.269 0.230 o
11 -4 5 2136.570 2128.390 35.398 0.604 o
11 -4 6 717.240 753.508 17.840 3.200 o
11 -4 7 1185.910 1128.640 32.273 1.486 o
11 -4 8 1299.690 1259.650 27.585 1.350 o
11 -4 9 8.152 7.996 4.744 254.007 o
11 -4 10 2010.940 2131.820 53.502 0.583 o
11 -4 11 8.579 10.370 5.296 212.235 o
11 -4 12 1662.150 1619.280 47.809 0.821 o
11 -4 13 141.850 132.931 7.210 25.509 o
11 -4 14 6.029 0.938 3.161 525.649 o
11 -4 15 80.980 74.590 5.464 47.243 o
11 -4 16 26.272 25.231 3.842 140.512 o
11 -4 17 254.644 223.026 11.267 12.743 o
11 -4 18 392.777 335.729 11.452 7.969 o
11 -4 19 638.135 444.476 12.162 4.661 o
11 -4 20 98.352 60.806 4.142 46.112 o
11 -3 0 480.538 505.450 9.139 5.922 o
11 -3 1 970.071 895.001 12.754 2.332 o
11 -3 2 83.385 96.572 3.837 45.573 o
11 -3 3 1728.020 1717.770 22.412 0.891 o
11 -3 4 63.180 63.988 3.505 63.880 o
11 -3 5 243.843 306.488 7.704 12.698 o
11 -3 6 122.382 182.650 5.484 26.270 o
11 -3 7 343.842 369.021 8.828 8.929 o
11 -3 8 2128.070 1985.900 34.860 0.629 o
11 -3 9 127.998 133.956 6.122 28.308 o
11 -3 10 127.593 120.921 8.022 27.256 o
11 -3 11 12.676 14.703 4.381 210.178 o
11 -3 12 55.374 48.424 5.345 67.810 o
11 -3 13 46.911 46.587 5.149 76.526 o
11 -3 14 0.345 -0.816 3.399 849.116 o
11 -3 15 31.305 29.631 7.286 83.677 o
11 -3 16 236.492 218.331 6.763 15.130 o
11 -3 17 1.378 1.168 2.035 1463.270 o
11 -3 18 156.735 138.676 4.443 25.391 o
11 -3 19 383.606 239.223 32.283 5.003 o
11 -2 0 114.561 112.092 3.824 34.847 o
11 -2 1 260.253 322.814 6.534 12.087 o
11 -2 2 235.172 206.309 6.138 15.689 o
11 -2 3 1268.610 1184.960 20.702 1.490 o
11 -2 4 120.113 116.471 4.532 32.618 o
11 -2 5 15.390 18.928 2.622 234.642 o
11 -2 6 276.221 249.114 5.890 12.957 o
11 -2 7 668.108 722.070 11.676 3.690 o
11 -2 8 36.089 34.147 3.422 111.333 o
11 -2 9 578.007 551.517 11.736 4.730 o
11 -2 10 548.125 536.867 11.162 5.042 o
11 -2 11 180.935 169.791 8.006 19.448 o
11 -2 12 1622.500 1651.710 40.457 0.878 o
11 -2 13 6.308 5.103 3.056 459.377 o
11 -2 14 812.565 887.402 23.405 2.512 o
11 -2 15 797.165 779.557 20.659 2.788 o
11 -2 16 398.524 398.433 11.706 7.361 o
11 -2 17 1277.720 1239.070 39.841 1.244 o
11 -2 18 30.267 18.836 1.985 161.820 o
11 -2 19 101.697 38.149 4.288 48.866 o
11 -1 0 485.346 450.677 7.263 6.280 o
11 -1 1 768.127 825.622 11.583 3.052 o
11 -1 2 37.787 40.099 2.504 109.067 o
11 -1 3 1047.920 1104.960 14.711 1.929 o
11 -1 4 1722.900 1672.930 21.796 0.909 o
11 -1 5 895.964 911.082 13.179 2.492 o
11 -1 6 22.976 18.079 2.482 190.448 o
11 -1 7 206.810 186.859 6.198 17.907 o
11 -1 8 151.486 151.590 5.446 24.641 o
11 -1 9 8.301 9.374 3.342 338.904 o
11 -1 10 245.000 247.276 7.928 13.744 o
11 -1 11 168.130 188.600 6.628 20.502 o
11 -1 12 150.839 133.641 5.422 25.812 o
11 -1 13 276.980 275.584 8.658 11.863 o
11 -1 14 387.022 438.438 13.553 7.008 o
11 -1 15 483.131 489.529 20.945 4.951 o
11 -1 16 0.306 -0.204 1.775 2848.210 o
11 -1 17 291.740 290.851 8.504 11.207 o
11 -1 18 709.020 598.691 11.995 3.783 o
11 0 0 1651.710 1660.700 18.739 0.965 o
11 0 1 348.172 410.973 6.831 8.664 o
11 0 2 12.247 11.605 2.001 334.952 o
11 0 3 263.696 272.242 5.902 12.992 o
11 0 4 153.282 155.976 4.176 24.908 o
11 0 5 3042.160 3221.140 41.426 0.321 o
11 0 6 103.374 111.279 5.532 35.448 o
11 0 7 417.471 472.865 9.478 6.820 o
11 0 8 727.632 796.482 13.548 3.212 o
11 0 9 18.971 23.828 2.998 186.605 o
11 0 10 132.581 123.987 4.726 29.610 o
11 0 11 32.308 48.377 3.777 102.634 o
11 0 12 657.850 709.843 14.604 3.667 o
11 0 13 788.163 842.746 18.616 2.780 o
11 0 14 229.456 220.977 6.798 15.404 o
11 0 15 569.782 570.148 13.841 4.607 o
11 0 16 39.721 41.712 4.089 94.230 o
11 0 17 616.520 571.315 17.707 4.091 o
11 1 0 476.204 479.524 8.878 6.123 o
11 1 1 1676.600 1699.140 23.783 0.920 o
11 1 2 446.477 444.964 8.557 6.701 o
11 1 3 2944.660 2935.730 51.151 0.341 o
11 1 4 1741.990 1784.280 25.721 0.855 o
11 1 5 667.097 695.955 39.624 2.463 o
11 1 6 1558.940 1674.490 37.808 0.922 o
11 1 7 124.685 136.922 5.937 28.758 o
11 1 8 6.623 8.951 2.908 414.357 o
11 1 9 237.933 239.436 13.140 12.333 o
11 1 10 127.678 135.705 6.960 27.399 o
11 1 11 361.622 392.170 10.605 8.137 o
11 1 12 556.884 620.785 18.448 4.245 o
11 1 13 496.753 495.414 14.213 5.441 o
11 1 14 26.729 24.691 3.062 151.081 o
11 1 15 278.903 277.425 10.356 11.350 o
11 2 0 127.101 117.083 3.387 32.169 o
11 2 1 782.654 788.366 11.230 3.074 o
11 2 2 294.228 292.570 5.983 11.568 o
11 2 3 4.750 5.046 2.609 587.477 o
11 2 4 275.743 286.475 10.418 11.294 o
11 2 5 195.291 192.378 5.772 18.671 o
11 2 6 101.652 103.653 4.720 37.837 o
11 2 7 376.450 390.295 8.594 8.147 o
11 2 8 668.982 714.102 17.348 3.497 o
11 2 9 52.805 52.785 3.074 78.018 o
11 2 10 243.064 244.662 6.160 14.365 o
11 2 11 644.914 654.812 12.283 3.962 o
11 2 12 5.989 10.535 1.747 524.137 o
11 2 13 5.742 4.510 1.335 760.418 o
11 2 14 50.105 40.268 2.365 90.670 o
11 3 0 679.503 727.919 11.870 3.615 o
11 3 1 219.074 240.479 6.342 15.576 o
11 3 2 0.147 3.323 2.423 1204.420 o
11 3 3 126.420 144.168 5.961 27.947 o
11 3 4 16.101 12.980 2.623 254.434 o
11 3 5 3.352 6.698 2.315 676.300 o
11 3 6 5.781 5.817 2.718 509.677 o
11 3 7 120.998 128.630 6.549 29.330 o
11 3 8 241.979 279.594 9.672 12.713 o
11 3 9 1.601 4.483 2.014 1060.560 o
11 3 10 141.424 149.463 5.516 25.934 o
11 3 11 530.544 448.320 12.061 5.515 o
11 3 12 26.284 23.156 3.193 153.444 o
11 4 0 218.126 216.682 6.285 16.285 o
11 4 1 136.531 149.169 5.093 26.897 o
11 4 2 240.420 261.136 7.362 13.806 o
11 4 3 173.021 177.088 5.170 21.310 o
11 4 4 262.166 269.735 7.074 12.849 o
11 4 5 568.697 636.227 12.798 4.450 o
11 4 6 1186.410 1303.030 22.909 1.496 o
11 4 7 0.646 0.793 2.265 1541.180 o
11 4 8 152.635 176.275 5.918 22.890 o
11 4 9 16.500 5.981 1.971 314.069 o
11 4 10 109.419 105.644 5.486 34.809 o
11 5 0 250.220 276.365 10.883 12.111 o
11 5 1 278.192 295.681 8.947 11.443 o
11 5 2 1051.410 1112.690 28.299 1.727 o
11 5 3 313.387 364.632 11.665 9.131 o
11 5 4 388.719 427.098 21.038 5.991 o
11 5 5 0.265 0.413 1.883 2419.490 o
11 5 6 25.903 26.086 2.852 154.363 o
11 5 7 1595.730 1474.970 48.836 0.879 o
11 6 0 452.721 470.274 10.925 6.284 o
11 6 1 6.974 5.383 1.730 597.691 o
11 6 2 31.561 25.407 3.029 135.476 o
12 -15 0 61.847 52.663 3.208 69.771 o
12 -15 1 337.900 309.392 6.423 10.051 o
12 -15 2 623.223 599.728 22.476 3.702 o
12 -15 3 591.694 617.860 18.489 4.054 o
12 -15 4 608.817 514.316 13.792 4.535 o
12 -15 5 889.629 822.068 93.706 0.819 o
12 -15 6 5.127 3.504 1.487 835.580 o
12 -15 7 0.195 -0.827 1.859 2737.900 o
12 -14 0 4.261 5.585 1.544 807.412 o
12 -14 1 461.220 452.521 8.091 6.504 o
12 -14 2 1257.200 1235.940 32.197 1.355 o
12 -14 3 166.519 142.653 3.603 24.408 o
12 -14 4 41.078 37.925 2.683 104.175 o
12 -14 5 43.988 52.465 4.508 80.222 o
12 -14 6 2.278 8.508 1.564 854.704 o
12 -14 7 36.634 30.782 6.468 85.097 o
12 -14 8 97.456 98.814 15.844 20.996 o
12 -14 9 15.253 13.294 2.572 262.942 o
12 -14 10 0.061 -0.562 2.322 1867.950 o
12 -13 0 161.320 171.573 6.450 21.953 o
12 -13 1 4.194 9.426 2.954 470.853 o
12 -13 2 1135.960 1115.530 59.515 1.125 o
12 -13 3 36.378 34.676 2.926 114.164 o
12 -13 4 122.956 134.283 7.424 27.657 o
12 -13 5 589.958 602.648 16.660 4.214 o
12 -13 6 254.637 263.324 7.058 13.263 o
12 -13 7 1625.390 1622.590 38.231 0.897 o
12 -13 8 1211.620 1197.710 40.383 1.313 o
12 -13 9 1266.560 1248.480 41.738 1.226 o
12 -13 10 42.549 39.282 3.842 93.714 o
12 -13 11 117.195 111.602 5.823 32.252 o
12 -12 0 3845.970 3791.620 108.497 0.184 o
12 -12 1 2559.920 2377.630 84.820 0.368 o
12 -12 2 854.349 868.155 29.871 2.247 o
12 -12 3 412.365 403.276 10.713 7.243 o
12 -12 4 896.216 928.278 23.060 2.272 o
12 -12 5 146.321 160.510 6.436 24.040 o
12 -12 6 2083.940 2172.500 40.926 0.598 o
12 -12 7 198.133 221.068 7.998 16.645 o
12 -12 8 558.937 615.442 16.895 4.347 o
12 -12 9 2042.480 2262.290 52.819 0.560 o
12 -12 10 634.306 732.145 19.124 3.531 o
12 -12 11 545.180 578.809 14.697 4.696 o
12 -12 12 25.916 29.682 2.325 154.219 o
12 -12 13 67.389 76.808 3.002 58.596 o
12 -12 14 187.220 151.885 4.866 21.302 o
12 -11 0 137.952 141.056 5.401 27.024 o
12 -11 1 131.763 127.438 4.325 29.776 o
12 -11 2 1639.780 1610.730 31.460 0.931 o
12 -11 3 133.790 152.802 4.138 27.666 o
12 -11 4 802.913 845.275 14.884 2.826 o
12 -11 5 258.868 276.635 7.859 12.657 o
12 -11 6 25.124 34.027 2.899 143.168 o
12 -11 7 303.482 308.975 7.561 10.792 o
12 -11 8 297.838 310.925 9.198 10.612 o
12 -11 9 37.153 47.449 3.550 97.499 o
12 -11 10 1148.120 1235.970 25.164 1.559 o
12 -11 11 1580.340 1707.960 33.381 0.927 o
12 -11 12 43.337 44.745 3.046 93.619 o
12 -11 13 204.711 216.947 6.194 17.090 o
12 -11 14 436.966 494.158 17.905 5.628 o
12 -11 15 762.147 638.655 34.028 2.565 o
12 -10 0 880.636 892.593 15.667 2.513 o
12 -10 1 18.663 25.537 3.088 182.034 o
12 -10 2 5451.660 5623.120 81.005 0.111 o
12 -10 3 10.595 24.478 2.868 244.072 o
12 -10 4 239.787 249.779 8.821 13.633 o
12 -10 5 6166.180 6349.720 102.055 0.087 o
12 -10 6 13.100 18.707 3.067 240.556 o
12 -10 7 0.869 1.751 2.264 1336.070 o
12 -10 8 221.506 237.045 7.537 15.158 o
12 -10 9 436.339 448.391 11.386 6.563 o
12 -10 10 370.366 417.259 10.650 7.778 o
12 -10 11 254.792 253.886 7.457 13.343 o
12 -10 12 13.849 24.100 2.730 223.602 o
12 -10 13 33.731 35.233 3.118 117.494 o
12 -10 14 285.735 277.524 7.166 11.872 o
12 -10 15 156.924 152.672 7.616 22.477 o
12 -10 16 1091.040 1068.240 35.613 1.580 o
12 -9 0 0.813 -0.915 2.735 1181.660 o
12 -9 1 31.764 22.309 3.465 134.143 o
12 -9 2 7.239 6.269 2.198 511.606 o
12 -9 3 373.105 410.092 8.707 8.022 o
12 -9 4 22.929 21.997 2.551 179.566 o
12 -9 5 29.891 32.032 2.691 134.393 o
12 -9 6 170.649 175.510 5.012 21.669 o
12 -9 7 148.350 140.887 4.947 25.992 o
12 -9 8 106.309 108.588 4.316 36.604 o
12 -9 9 0.916 2.733 2.207 1249.820 o
12 -9 10 1.043 1.401 2.118 1458.450 o
12 -9 11 22.072 20.107 2.380 191.621 o
12 -9 12 173.166 190.706 6.102 20.272 o
12 -9 13 65.299 62.802 3.525 62.832 o
12 -9 14 54.060 52.310 6.289 62.817 o
12 -9 15 302.873 299.294 9.272 10.618 o
12 -9 16 194.877 197.068 6.571 18.210 o
12 -9 17 101.673 89.664 4.856 39.452 o
12 -8 0 1027.220 1042.390 17.195 1.994 o
12 -8 1 2043.390 2094.280 37.247 0.632 o
12 -8 2 86.930 90.104 3.690 45.690 o
12 -8 3 961.851 992.747 17.614 2.167 o
12 -8 4 77.199 69.315 3.589 54.220 o
12 -8 5 19.748 19.461 2.848 197.416 o
12 -8 6 106.829 114.672 4.746 35.302 o
12 -8 7 761.311 790.227 20.543 2.888 o
12 -8 8 1504.830 1524.260 27.075 1.069 o
12 -8 9 720.565 752.767 14.890 3.288 o
12 -8 10 2.065 7.102 2.328 752.330 o
12 -8 11 166.107 145.397 4.745 23.761 o
12 -8 12 39.020 55.102 3.345 90.888 o
12 -8 13 1182.220 1249.960 39.461 1.328 o
12 -8 14 159.853 164.613 6.875 22.149 o
12 -8 15 55.314 59.806 4.014 69.316 o
12 -8 16 658.658 704.370 18.004 3.536 o
12 -8 17 302.105 253.890 7.461 11.667 o
12 -7 0 7.946 14.482 2.566 354.428 o
12 -7 1 51.951 57.378 3.661 74.446 o
12 -7 2 6536.360 6528.970 85.672 0.082 o
12 -7 3 60.960 66.058 3.443 64.849 o
12 -7 4 26.810 30.528 3.142 140.472 o
12 -7 5 402.516 430.297 14.206 6.777 o
12 -7 6 658.133 643.541 15.559 3.789 o
12 -7 7 99.237 120.918 5.571 35.245 o
12 -7 8 2195.710 2173.380 56.469 0.523 o
12 -7 9 696.095 719.776 24.172 3.082 o
12 -7 10 58.359 53.494 4.830 66.164 o
12 -7 11 277.200 275.745 9.999 11.519 o
12 -7 12 302.448 304.541 10.377 10.328 o
12 -7 13 858.804 846.251 26.817 2.351 o
12 -7 14 40.970 36.142 5.358 86.613 o
12 -7 15 2.671 4.727 2.611 723.211 o
12 -7 16 17.464 15.803 2.492 234.065 o
12 -7 17 10.883 10.014 3.288 299.701 o
12 -6 0 0.334 10.543 2.521 704.759 o
12 -6 1 1229.150 1236.370 23.463 1.480 o
12 -6 2 699.690 733.422 15.439 3.396 o
12 -6 3 420.167 448.418 12.359 6.662 o
12 -6 4 1.038 0.735 2.163 1522.880 o
12 -6 5 12.538 23.740 3.567 209.732 o
12 -6 6 82.062 64.497 3.318 53.571 o
12 -6 7 43.506 44.663 2.870 94.339 o
12 -6 8 376.680 360.331 9.726 8.269 o
12 -6 9 186.646 188.381 10.773 16.810 o
12 -6 10 469.181 432.127 13.343 6.093 o
12 -6 11 36.300 36.555 2.766 113.600 o
12 -6 12 1.220 -1.519 1.930 1861.690 o
12 -6 13 238.017 219.677 7.909 14.660 o
12 -6 14 166.382 151.910 9.908 19.938 o
12 -6 15 5.200 1.838 1.463 925.131 o
12 -6 16 67.424 61.354 5.009 57.537 o
12 -6 17 408.690 347.617 31.933 4.587 o
12 -5 0 150.784 154.174 6.297 23.998 o
12 -5 1 13.106 10.684 2.526 305.272 o
12 -5 2 22.355 20.557 3.142 175.277 o
12 -5 3 219.575 207.496 6.098 16.524 o
12 -5 4 6.258 7.988 2.466 485.611 o
12 -5 5 14.103 16.367 2.540 260.184 o
12 -5 6 20.063 18.354 2.668 202.715 o
12 -5 7 330.846 335.573 6.938 9.838 o
12 -5 8 508.728 480.180 10.121 5.703 o
12 -5 9 1642.060 1639.500 28.077 0.939 o
12 -5 10 2.189 5.423 2.383 798.607 o
12 -5 11 7.735 6.312 2.581 452.939 o
12 -5 12 38.723 45.581 3.451 97.204 o
12 -5 13 123.345 102.082 4.285 33.630 o
12 -5 14 6.230 3.717 1.615 709.757 o
12 -5 15 698.867 538.305 55.837 1.849 o
12 -5 16 161.317 98.085 25.540 10.181 o
12 -5 17 2.928 4.904 1.177 1109.470 o
12 -4 0 16.469 24.817 2.539 207.754 o
12 -4 1 2.243 3.162 2.346 924.468 o
12 -4 2 1481.350 1542.350 24.779 1.093 o
12 -4 3 8.910 9.237 2.384 401.067 o
12 -4 4 1540.250 1551.150 23.214 1.056 o
12 -4 5 173.164 196.975 8.118 18.957 o
12 -4 6 95.257 95.240 3.720 42.069 o
12 -4 7 40.647 48.866 2.872 95.391 o
12 -4 8 3.152 9.169 2.806 533.923 o
12 -4 9 355.511 388.311 8.410 8.566 o
12 -4 10 874.717 856.313 16.783 2.555 o
12 -4 11 6.173 8.808 2.422 479.570 o
12 -4 12 871.019 800.849 20.878 2.542 o
12 -4 13 97.347 88.322 4.492 41.401 o
12 -4 14 109.534 88.042 5.543 36.673 o
12 -4 15 20.362 16.785 1.652 225.612 o
12 -4 16 19.323 9.884 1.733 263.361 o
12 -4 17 1178.580 899.040 29.958 1.672 o
12 -3 0 147.481 165.704 5.139 24.483 o
12 -3 1 38.607 41.351 2.824 104.624 o
12 -3 2 634.867 647.335 10.134 4.117 o
12 -3 3 1808.670 1957.690 24.584 0.785 o
12 -3 4 58.769 68.105 3.214 66.299 o
12 -3 5 1713.990 1776.980 23.892 0.878 o
12 -3 6 232.263 255.807 6.147 14.608 o
12 -3 7 23.983 30.520 2.956 151.933 o
12 -3 8 1.298 4.931 2.302 949.891 o
12 -3 9 30.794 31.539 2.797 131.630 o
12 -3 10 2204.950 2112.750 36.467 0.583 o
12 -3 11 554.227 541.044 16.172 4.667 o
12 -3 12 0.200 1.995 2.039 1736.350 o
12 -3 13 369.958 340.550 10.700 8.432 o
12 -3 14 144.388 145.660 8.402 23.430 o
12 -3 15 632.947 536.296 13.353 4.331 o
12 -3 16 116.019 43.184 11.952 28.193 o
12 -2 0 20.710 29.660 2.399 174.336 o
12 -2 1 484.097 434.518 7.633 6.367 o
12 -2 2 34.373 37.584 2.515 118.252 o
12 -2 3 22.877 29.620 2.393 165.161 o
12 -2 4 2226.380 2219.240 29.185 0.578 o
12 -2 5 348.209 337.026 7.229 9.385 o
12 -2 6 15.549 16.330 2.546 246.548 o
12 -2 7 538.203 533.509 11.561 5.113 o
12 -2 8 95.561 94.479 4.658 40.775 o
12 -2 9 254.143 259.486 6.395 13.516 o
12 -2 10 1.347 1.449 2.001 1458.880 o
12 -2 11 132.795 109.810 4.314 31.097 o
12 -2 12 32.635 38.691 3.226 115.281 o
12 -2 13 132.531 121.125 6.304 28.407 o
12 -2 14 120.337 116.580 4.364 32.721 o
12 -2 15 104.928 71.758 12.290 27.161 o
12 -1 0 932.617 930.956 11.386 2.397 o
12 -1 1 2657.080 2772.040 28.566 0.421 o
12 -1 2 430.680 412.587 7.409 7.220 o
12 -1 3 1661.200 1673.140 21.364 0.946 o
12 -1 4 853.586 883.368 13.460 2.643 o
12 -1 5 1928.430 2043.280 26.995 0.710 o
12 -1 6 1127.580 1160.440 21.349 1.682 o
12 -1 7 460.504 482.188 9.641 6.230 o
12 -1 8 483.266 501.610 12.559 5.670 o
12 -1 9 11.408 9.665 2.950 314.349 o
12 -1 10 461.133 481.236 12.040 6.037 o
12 -1 11 13.190 12.095 2.555 293.689 o
12 -1 12 64.128 68.754 3.049 62.882 o
12 -1 13 0.107 -0.173 1.439 4598.060 o
12 -1 14 4.008 4.432 1.138 986.732 o
12 0 0 173.511 170.685 4.022 22.044 o
12 0 1 348.059 360.636 5.996 9.268 o
12 0 2 40.101 32.471 2.167 113.843 o
12 0 3 1376.690 1409.670 18.206 1.275 o
12 0 4 29.787 31.147 2.195 140.424 o
12 0 5 321.769 333.103 10.438 9.519 o
12 0 6 246.276 254.710 7.260 13.723 o
12 0 7 140.338 135.254 4.533 27.727 o
12 0 8 676.611 726.940 14.195 3.555 o
12 0 9 170.146 165.636 7.390 20.849 o
12 0 10 428.533 471.502 9.872 6.654 o
12 0 11 2688.000 2619.380 43.318 0.411 o
12 0 12 382.931 381.147 15.253 7.207 o
12 0 13 0.853 2.123 1.458 2085.390 o
12 1 0 185.360 203.219 4.986 19.299 o
12 1 1 161.295 151.848 4.148 24.235 o
12 1 2 633.329 663.048 14.306 3.921 o
12 1 3 1389.960 1429.440 21.581 1.233 o
12 1 4 749.304 775.640 12.554 3.194 o
12 1 5 114.764 114.101 3.940 34.483 o
12 1 6 1227.190 1307.940 28.385 1.391 o
12 1 7 253.989 254.512 10.097 12.600 o
12 1 8 0.373 0.770 1.857 2249.280 o
12 1 9 10.348 15.919 1.893 335.317 o
12 1 10 272.400 286.564 7.240 12.150 o
12 1 11 1310.090 1201.460 36.595 1.271 o
12 2 0 1588.140 1654.470 26.695 0.973 o
12 2 1 47.343 56.199 3.407 80.422 o
12 2 2 31.449 33.969 2.847 126.441 o
12 2 3 1013.190 1037.970 22.414 1.946 o
12 2 4 103.110 96.372 5.262 37.626 o
12 2 5 446.319 494.925 11.839 6.140 o
12 2 6 70.199 67.418 6.012 51.526 o
12 2 7 539.314 513.583 35.066 3.335 o
12 2 8 314.421 364.086 10.110 9.399 o
12 2 9 163.655 156.532 5.475 23.034 o
12 2 10 10.726 17.554 2.360 298.469 o
12 3 0 1.577 1.676 2.444 1079.370 o
12 3 1 275.318 318.767 7.867 11.411 o
12 3 2 91.626 115.678 4.965 38.515 o
12 3 3 0.646 0.513 2.353 1494.840 o
12 3 4 39.019 28.954 3.526 109.844 o
12 3 5 314.768 346.650 10.610 9.492 o
12 3 6 90.293 94.734 9.880 32.197 o
12 3 7 172.753 153.035 7.459 21.122 o
12 4 0 1.611 3.280 2.551 910.810 o
12 4 1 0.393 1.831 2.326 1399.870 o
12 4 2 180.209 183.596 8.454 18.739 o
12 4 3 19.700 25.509 2.430 189.004 o
12 4 4 302.941 281.862 8.040 11.105 o
12 5 0 50.333 55.061 2.892 79.997 o
13 -14 0 34.287 28.564 3.151 123.338 o
13 -14 1 1685.180 1394.960 32.798 0.960 o
13 -14 2 165.181 121.232 3.538 25.889 o
13 -14 3 715.608 520.814 32.378 2.930 o
13 -13 0 449.080 441.607 13.106 6.284 o
13 -13 1 17.403 26.309 2.370 200.750 o
13 -13 2 884.927 791.076 18.722 2.572 o
13 -13 3 81.119 64.260 2.891 54.849 o
13 -13 4 196.200 181.812 6.469 18.690 o
13 -13 5 75.918 85.889 13.772 27.117 o
13 -13 6 427.322 387.917 14.693 6.670 o
13 -13 7 815.558 748.048 25.634 2.617 o
13 -13 8 14.299 13.756 1.579 303.532 o
13 -12 0 84.070 126.491 17.006 19.443 o
13 -12 1 2459.630 2467.400 99.007 0.342 o
13 -12 2 295.337 299.602 10.081 10.642 o
13 -12 3 96.865 89.359 4.032 42.056 o
13 -12 4 108.173 110.091 7.365 31.991 o
13 -12 5 594.251 626.050 23.523 3.710 o
13 -12 6 386.090 384.142 15.664 7.081 o
13 -12 7 119.852 103.726 6.392 31.790 o
13 -12 8 701.453 667.999 23.836 3.170 o
13 -12 9 28.822 30.432 2.327 143.274 o
13 -12 10 7.828 5.983 2.086 507.125 o
13 -11 0 1525.190 1554.720 38.865 0.968 o
13 -11 1 430.060 444.283 12.483 6.553 o
13 -11 2 1853.850 1855.360 31.446 0.765 o
13 -11 3 454.502 460.355 10.233 6.378 o
13 -11 4 28.035 27.216 2.482 149.453 o
13 -11 5 585.619 584.150 17.679 4.232 o
13 -11 6 5.987 8.354 1.897 554.353 o
13 -11 7 1266.540 1156.720 68.587 0.926 o
13 -11 8 172.994 149.146 13.475 16.859 o
13 -11 9 86.961 107.845 4.350 41.798 o
13 -11 10 123.398 144.222 18.745 15.132 o
13 -11 11 157.636 125.887 8.741 22.789 o
13 -10 0 1149.710 1174.420 19.017 1.667 o
13 -10 1 159.720 169.932 5.256 22.873 o
13 -10 2 1005.620 1107.690 20.000 1.935 o
13 -10 3 1066.680 1129.350 27.556 1.706 o
13 -10 4 2283.190 2348.750 56.199 0.485 o
13 -10 5 475.090 500.851 15.506 5.497 o
13 -10 6 29.142 30.045 2.236 143.716 o
13 -10 7 40.703 47.419 2.472 98.322 o
13 -10 8 508.792 488.861 13.475 5.423 o
13 -10 9 588.815 613.401 14.569 4.304 o
13 -10 10 91.894 92.874 3.354 43.980 o
13 -10 11 312.962 265.388 6.357 11.350 o
13 -10 12 367.095 246.755 28.613 5.717 o
13 -10 13 106.960 96.457 5.002 37.043 o
13 -9 0 29.327 38.544 2.482 129.133 o
13 -9 1 36.596 45.445 3.056 103.122 o
13 -9 2 1751.800 1766.690 31.938 0.829 o
13 -9 3 1913.050 2039.790 34.296 0.695 o
13 -9 4 103.047 110.469 4.585 36.838 o
13 -9 5 696.738 678.173 36.561 2.560 o
13 -9 6 107.211 111.130 3.706 36.733 o
13 -9 7 61.778 64.821 3.260 65.219 o
13 -9 8 659.329 654.728 31.977 2.920 o
13 -9 9 304.465 316.893 15.410 8.972 o
13 -9 10 753.323 739.097 22.997 2.908 o
13 -9 11 5.476 5.312 1.602 708.768 o
13 -9 12 144.850 117.446 4.382 28.473 o
13 -9 13 267.135 204.092 7.103 13.953 o
13 -8 0 105.589 112.371 4.487 36.137 o
13 -8 1 382.352 400.903 10.579 7.727 o
13 -8 2 492.807 520.820 17.821 5.058 o
13 -8 3 60.617 74.007 4.176 60.407 o
13 -8 4 128.678 136.614 6.599 27.558 o
13 -8 5 380.368 405.165 16.390 6.908 o
13 -8 6 949.205 921.059 19.844 2.232 o
13 -8 7 2137.410 2021.260 33.716 0.624 o
13 -8 8 371.512 361.573 8.094 8.554 o
13 -8 9 338.972 297.830 6.668 10.137 o
13 -8 10 28.757 24.401 1.982 156.989 o
13 -8 11 216.386 213.430 13.572 13.363 o
13 -8 12 424.837 390.971 16.402 6.458 o
13 -8 13 107.195 93.710 4.503 37.975 o
13 -8 14 377.822 266.960 10.293 9.054 o
13 -7 0 1483.770 1487.150 23.841 1.118 o
13 -7 1 1185.890 1187.560 19.611 1.602 o
13 -7 2 2.275 9.962 2.143 674.209 o
13 -7 3 310.871 313.223 6.473 10.701 o
13 -7 4 1229.040 1231.890 20.541 1.511 o
13 -7 5 508.141 583.961 10.795 5.198 o
13 -7 6 885.374 913.588 14.852 2.488 o
13 -7 7 770.468 739.968 12.580 3.181 o
13 -7 8 315.288 317.792 7.300 10.397 o
13 -7 9 76.154 80.538 2.863 53.353 o
13 -7 10 1475.420 1374.200 20.882 1.187 o
13 -7 11 1.535 4.045 1.577 1335.080 o
13 -7 12 313.619 281.656 8.373 10.742 o
13 -7 13 94.263 86.950 6.696 38.585 o
13 -6 0 1.250 4.505 2.414 936.897 o
13 -6 1 2122.690 2314.850 29.925 0.593 o
13 -6 2 1468.450 1566.240 21.095 1.114 o
13 -6 3 539.101 534.124 9.477 5.217 o
13 -6 4 1709.930 1763.860 24.980 0.879 o
13 -6 5 390.903 366.683 8.507 8.110 o
13 -6 6 169.110 184.016 7.160 20.311 o
13 -6 7 71.773 72.165 2.963 57.529 o
13 -6 8 643.824 638.515 14.376 3.927 o
13 -6 9 945.011 969.022 24.006 2.107 o
13 -6 10 343.923 339.966 11.509 8.796 o
13 -6 11 2.551 4.804 1.763 991.164 o
13 -6 12 877.982 707.496 39.263 2.061 o
13 -6 13 166.934 132.884 4.721 24.376 o
13 -6 14 154.928 144.092 6.307 24.089 o
13 -5 0 360.075 377.187 7.306 8.712 o
13 -5 1 299.581 326.328 6.546 10.822 o
13 -5 2 127.493 134.719 4.011 30.108 o
13 -5 3 831.988 865.177 14.433 2.715 o
13 -5 4 33.197 37.393 2.130 123.646 o
13 -5 5 0.879 3.600 1.713 1498.280 o
13 -5 6 1784.070 1678.670 61.083 0.684 o
13 -5 7 55.750 35.270 2.542 86.149 o
13 -5 8 105.135 115.309 3.421 36.999 o
13 -5 9 216.550 194.589 5.594 17.253 o
13 -5 10 373.545 322.603 22.111 6.502 o
13 -5 11 710.418 652.814 21.077 3.291 o
13 -5 12 6.155 8.999 1.212 599.980 o
13 -5 13 25.345 20.840 1.657 182.616 o
13 -4 0 271.458 286.689 7.118 12.205 o
13 -4 1 245.420 256.877 5.522 14.135 o
13 -4 2 16.205 31.853 2.222 194.235 o
13 -4 3 40.909 44.121 2.461 100.593 o
13 -4 4 101.196 106.943 3.413 39.064 o
13 -4 5 43.587 36.287 2.192 103.874 o
13 -4 6 8.589 19.004 2.049 332.143 o
13 -4 7 1295.770 1264.900 53.897 1.053 o
13 -4 8 153.908 148.705 8.494 22.263 o
13 -4 9 220.094 220.888 14.674 12.588 o
13 -4 10 125.453 128.303 12.710 21.522 o
13 -4 11 47.563 32.777 3.190 95.273 o
13 -4 12 31.000 34.879 2.077 132.641 o
13 -4 13 61.971 54.562 3.864 66.855 o
13 -3 0 359.607 345.067 6.135 9.172 o
13 -3 1 839.918 862.759 20.542 2.551 o
13 -3 2 280.984 296.980 7.526 11.641 o
13 -3 3 758.049 802.504 12.773 3.104 o
13 -3 4 40.264 46.039 2.962 97.511 o
13 -3 5 3.991 5.008 1.938 773.792 o
13 -3 6 0.873 1.654 1.734 1868.400 o
13 -3 7 6.495 8.012 1.922 537.051 o
13 -3 8 409.218 394.233 9.895 7.444 o
13 -3 9 271.793 235.976 10.744 12.109 o
13 -3 10 1813.320 1500.530 145.164 0.321 o
13 -3 11 572.963 538.342 39.712 2.871 o
13 -3 12 84.559 87.304 5.359 44.006 o
13 -2 0 0.064 1.288 1.638 2757.540 o
13 -2 1 167.256 161.071 3.672 23.289 o
13 -2 2 374.383 366.962 6.293 8.634 o
13 -2 3 1833.870 1825.960 33.061 0.774 o
13 -2 4 621.671 617.467 10.758 4.263 o
13 -2 5 611.454 632.268 11.350 4.257 o
13 -2 6 1870.360 1888.200 31.252 0.752 o
13 -2 7 12.564 18.526 2.335 271.853 o
13 -2 8 590.539 635.868 16.088 4.146 o
13 -2 9 2.866 6.472 1.514 914.575 o
13 -2 10 569.830 575.256 15.562 4.488 o
13 -2 11 750.593 703.749 30.998 2.643 o
13 -1 0 47.817 47.934 2.599 87.835 o
13 -1 1 1.563 5.010 1.806 1114.200 o
13 -1 2 303.725 278.283 5.526 11.563 o
13 -1 3 421.298 440.593 7.723 7.130 o
13 -1 4 1104.600 1161.340 18.146 1.752 o
13 -1 5 25.330 28.615 2.357 157.965 o
13 -1 6 22.528 25.504 2.166 178.774 o
13 -1 7 1098.010 1145.760 19.442 1.759 o
13 -1 8 225.037 217.335 5.297 16.177 o
13 -1 9 2.058 3.617 1.805 1151.870 o
13 0 0 175.536 175.389 4.840 21.307 o
13 0 1 18.423 17.547 2.483 220.373 o
13 0 2 52.874 35.711 2.560 89.286 o
13 0 3 136.093 151.772 4.741 27.026 o
13 0 4 448.192 477.361 9.502 6.410 o
13 0 5 54.976 49.658 4.376 72.142 o
13 0 6 1.398 4.324 2.018 1106.330 o
13 0 7 57.291 64.892 3.617 67.317 o
13 0 8 21.918 18.110 1.955 205.438 o
13 1 0 21.892 12.712 5.198 148.599 o
13 1 1 363.573 384.529 17.230 7.121 o
13 1 2 37.787 34.248 5.244 92.653 o
13 1 3 866.144 811.344 29.197 2.303 o
13 1 4 623.836 607.988 105.798 0.760 o
13 1 5 167.059 168.870 8.894 19.972 o
13 1 6 344.323 344.723 13.813 8.328 o
13 2 0 15.240 25.272 2.135 223.160 o
13 2 1 378.132 377.361 11.572 7.852 o
13 2 2 0.369 3.209 1.289 2259.340 o
13 2 3 326.738 288.050 6.724 10.575 o
13 2 4 1326.110 1164.300 38.252 1.254 o
13 3 0 460.666 428.689 15.664 5.961 o
14 -13 0 71.699 38.278 3.122 67.996 o
14 -12 0 907.215 874.075 29.738 2.138 o
14 -12 1 6.805 5.901 2.364 515.626 o
14 -12 2 610.353 498.768 80.499 1.201 o
14 -12 3 94.640 72.345 11.415 30.224 o
14 -12 4 0.145 -0.012 1.258 5712.240 o
14 -11 0 277.138 270.103 8.295 12.033 o
14 -11 1 29.762 28.399 2.737 139.455 o
14 -11 2 45.347 37.069 3.996 90.488 o
14 -11 3 402.195 378.776 10.579 7.590 o
14 -11 4 3.322 1.017 1.783 1168.930 o
14 -11 5 136.911 139.214 4.919 27.660 o
14 -11 6 321.285 281.749 11.835 9.827 o
14 -10 0 1225.990 1212.150 38.819 1.314 o
14 -10 1 554.339 564.827 14.223 4.711 o
14 -10 2 730.363 742.250 17.826 3.172 o
14 -10 3 22.663 26.610 2.742 167.436 o
14 -10 4 27.769 24.471 2.060 159.806 o
14 -10 5 184.540 150.416 9.482 18.961 o
14 -10 6 279.663 252.995 11.054 11.502 o
14 -10 7 1619.470 1459.150 33.908 0.973 o
14 -10 8 803.361 655.866 15.826 3.126 o
14 -9 0 2649.000 2580.330 55.111 0.401 o
14 -9 1 986.151 1001.840 15.881 2.133 o
14 -9 2 158.778 162.989 4.801 23.573 o
14 -9 3 1915.110 2024.080 43.212 0.666 o
14 -9 4 75.427 86.335 8.483 39.473 o
14 -9 5 1.717 2.740 1.384 1597.790 o
14 -9 6 35.404 46.842 2.590 106.794 o
14 -9 7 0.013 2.895 1.578 2218.850 o
14 -9 8 2218.400 1804.420 43.983 0.603 o
14 -9 9 546.779 427.466 15.282 5.217 o
14 -8 0 1.840 3.825 2.197 995.032 o
14 -8 1 947.991 993.095 17.906 2.192 o
14 -8 2 339.567 354.050 7.830 9.310 o
14 -8 3 81.462 88.114 5.002 45.643 o
14 -8 4 922.322 936.063 16.634 2.336 o
14 -8 5 14.989 18.761 1.609 265.110 o
14 -8 6 4.399 5.982 1.689 750.386 o
14 -8 7 1203.340 1093.340 23.705 1.597 o
14 -8 8 0.692 3.422 2.901 859.458 o
14 -8 9 1920.760 1625.280 70.457 0.602 o
14 -7 0 13.665 9.565 2.096 324.528 o
14 -7 1 26.339 35.128 2.460 142.423 o
14 -7 2 6.598 5.849 1.926 580.575 o
14 -7 3 4.214 6.653 2.068 669.722 o
14 -7 4 1998.530 2136.250 40.779 0.629 o
14 -7 5 347.936 386.855 9.227 8.620 o
14 -7 6 7.428 9.416 1.741 491.895 o
14 -7 7 1007.150 955.333 26.720 1.950 o
14 -7 8 0.528 0.806 1.302 3357.090 o
14 -7 9 3.540 4.474 1.310 1009.750 o
14 -6 0 468.640 519.057 8.083 6.039 o
14 -6 1 637.292 635.417 12.474 4.051 o
14 -6 2 10.030 6.372 1.568 468.751 o
14 -6 3 6.765 7.591 1.917 535.197 o
14 -6 4 197.391 206.611 5.300 18.205 o
14 -6 5 14.673 19.181 2.908 230.957 o
14 -6 6 30.041 28.377 2.410 141.906 o
14 -6 7 4.138 4.346 2.016 771.343 o
14 -6 8 177.436 148.465 8.522 20.214 o
14 -6 9 0.103 -0.252 1.732 3251.240 o
14 -5 0 685.206 719.272 17.023 3.429 o
14 -5 1 636.375 691.014 10.870 3.960 o
14 -5 2 1066.360 1144.760 17.973 1.827 o
14 -5 3 1449.120 1558.570 34.014 1.049 o
14 -5 4 1167.510 1057.760 40.942 1.413 o
14 -5 5 44.386 40.682 2.269 98.758 o
14 -5 6 2.421 2.960 2.177 982.488 o
14 -5 7 5.528 6.996 2.091 582.860 o
14 -5 8 29.832 34.839 2.496 132.515 o
14 -5 9 527.132 482.474 17.156 5.000 o
14 -4 0 70.721 99.676 3.901 49.703 o
14 -4 1 126.958 153.057 6.048 27.172 o
14 -4 2 115.249 137.335 4.766 31.375 o
14 -4 3 108.347 103.118 3.598 37.535 o
14 -4 4 30.178 42.250 2.250 124.245 o
14 -4 5 91.147 104.944 5.210 39.687 o
14 -4 6 174.952 181.725 6.029 20.532 o
14 -4 7 438.491 386.432 13.757 6.659 o
14 -4 8 101.324 88.999 5.172 39.156 o
14 -3 0 701.110 738.290 24.521 3.018 o
14 -3 1 108.311 98.492 6.278 34.703 o
14 -3 2 20.871 23.233 4.126 156.691 o
14 -3 3 268.243 294.059 8.317 11.927 o
14 -3 4 5.706 5.706 2.228 586.002 o
14 -3 5 208.622 176.065 6.910 17.850 o
14 -2 0 27.408 30.215 2.305 148.366 o
14 -2 1 287.454 299.256 6.511 11.589 o
14 -2 2 425.472 411.809 15.066 6.503 o
14 -2 3 0.112 -0.449 2.180 2082.600 o
14 -2 4 7.206 10.170 2.176 450.101 o
14 -2 5 1.186 3.291 1.531 1583.440 o
14 -1 0 284.332 293.752 7.334 11.624 o
14 -1 1 443.398 455.200 9.999 6.561 o
14 -1 2 76.933 78.452 4.215 50.932 o
14 -1 3 25.425 21.694 3.003 162.220 o
14 -1 4 606.950 592.021 14.776 4.248 o
14 0 0 75.916 70.237 3.736 54.310 o
14 0 1 10.267 7.596 1.848 425.618 o
14 0 2 213.620 203.120 8.190 16.199 o
15 -10 0 216.286 134.680 48.023 3.650 o
15 -9 0 921.739 851.521 28.849 2.155 o
15 -9 1 798.919 670.399 23.044 2.870 o
15 -8 0 186.796 176.181 4.862 20.297 o
15 -8 1 1555.600 1416.480 26.854 1.073 o
15 -8 2 354.340 324.436 7.074 9.407 o
15 -8 3 35.780 35.039 3.029 114.215 o
15 -7 0 991.389 972.745 19.184 2.101 o
15 -7 1 577.831 545.308 15.153 4.559 o
15 -7 2 193.059 190.237 6.054 18.792 o
15 -7 3 80.353 74.121 4.255 50.312 o
15 -6 0 521.416 552.538 11.390 5.183 o
15 -6 1 0.058 3.728 1.731 1768.070 o
15 -6 2 109.473 108.368 6.693 32.881 o
15 -6 3 2.169 2.244 1.809 1269.560 o
15 -5 0 190.405 195.805 9.133 17.299 o
15 -5 1 1098.420 1064.070 54.747 1.243 o
15 -5 2 128.220 132.637 6.367 28.134 o
15 -4 0 6.856 8.761 1.368 558.675 o
15 -4 1 733.363 653.184 22.586 3.138 o
;
_iucr_refine_instructions_details 
;
TITL pk14_a.res in P-1
REM Old TITL PK14 in P-1
REM SHELXT solution in P-1
REM R1 0.117, Rweak 0.006, Alpha 0.043, Orientation as input
REM Formula found by SHELXT: C10A N100 O92 S95 Cu2
CELL 1.54184 12.2143 14.3299 28.9827 94.412 100.883 110.808
ZERR 2 0.0001 0.0001 0.0001 0.001 0.001 0.001
LATT 1
SFAC C H Cu N O S
UNIT 198 204 6 14 16 14

L.S. 2
PLAN  5
SIZE 0.17 0.06 0.04
TEMP -123
fmap 2
acta 
OMIT -9 -8 18
OMIT -9 -7 20
OMIT -9 -8 19
OMIT -8 -10 19
OMIT -9 -7 19
OMIT -1 5 9
WGHT 0.049291 2.178041
FVAR 2.06961
REM <olex2.extras>
REM <HklSrc "%.\\PK14.hkl">
REM </olex2.extras>

Cu1   3     1.17211  1.02168  0.47587  11.00000  0.02765  0.01810  0.02935 =
 0.00299  0.00412  0.01148 

Cu3   3     0.44423  0.35405  0.11628  11.00000  0.02160  0.02121  0.03700 =
 0.00431  0.00774  0.01190 

Cu2   3     0.55486  0.32392  0.26544  11.00000  0.02451  0.01935  0.04416 =
 0.00592  0.01249  0.01118 

S11   6     1.11937  1.22305  0.46320  11.00000  0.02583  0.02348  0.03519 =
 0.00973  0.00481  0.01258 

S35   6     0.74545  0.07544  0.24912  11.00000  0.03186  0.03565  0.03231 =
 0.00920  0.01359  0.02271 
S41   6     0.55518  0.54648  0.26274  11.00000  0.02940  0.01836  0.04099 =
 0.00695  0.01556  0.00704 

S71   6     0.46097  0.13731  0.12443  11.00000  0.02892  0.02067  0.03615 =
 0.00603  0.00808  0.00886 
S65   6     0.24543  0.58738  0.13810  11.00000  0.02473  0.03173  0.04391 =
 -0.00217  0.01052  0.01575 

S5    6     1.07244  0.66588  0.42114  11.00000  0.02983  0.02223  0.04384 =
 -0.00149  0.00391  0.01050 

S95   6    -0.05582  0.93462  0.09083  11.00000  0.03008  0.02854  0.03598 =
 0.00104 -0.00174  0.01730 

O3    5     0.76919  0.09334  0.20301  11.00000  0.04150  0.05665  0.03383 =
 0.00751  0.01814  0.02381 

O6    5    -0.15151  0.85151  0.05865  11.00000  0.03218  0.04167  0.04301 =
 -0.00170 -0.00807  0.01348 

N43   4     0.38302  0.41093  0.27979  11.00000  0.02166  0.01716  0.02819 =
 0.00546  0.00685  0.00910 

N73   4     0.62786  0.27823  0.10745  11.00000  0.02253  0.02063  0.02664 =
 0.00443  0.00507  0.01239 

O5    5    -0.06910  1.03024  0.09620  11.00000  0.05042  0.03594  0.05244 =
 0.00722  0.00524  0.03022 

N10   4     1.17417  0.89399  0.45761  11.00000  0.02691  0.02113  0.02666 =
 0.00459  0.00654  0.01248 
N13   4     1.25027  1.21060  0.53650  11.00000  0.02001  0.01709  0.03128 =
 0.00362  0.00542  0.00908 

O4    5     0.78290 -0.00094  0.26907  11.00000  0.05211  0.04854  0.05859 =
 0.01859  0.02048  0.03927 

O1    5     0.94528  0.64697  0.40831  11.00000  0.02737  0.04507  0.05802 =
 0.00322  0.00257  0.00755 
O2    5     1.10514  0.57940  0.41332  11.00000  0.05593  0.02349  0.06554 =
 -0.00722  0.00509  0.01902 

N40   4     0.62360  0.22518  0.26862  11.00000  0.02251  0.02080  0.03616 =
 0.00351  0.00701  0.00991 

N70   4     0.37211  0.45035  0.11048  11.00000  0.02136  0.02179  0.03460 =
 0.00297  0.00605  0.01092 
O91   5     0.22523  0.55382  0.18255  11.00000  0.03730  0.06799  0.04105 =
 -0.00585  0.01901  0.00809 
O92   5     0.20309  0.66643  0.12532  11.00000  0.03818  0.03716  0.10140 =
 -0.00475  0.00766  0.02801 

N100  4     0.09127  0.81126  0.11734  11.00000  0.03602  0.02846  0.03892 =
 0.00236  0.00718  0.02242 
H100  2     0.12549  0.77144  0.12172  11.00000  0.04243 

C9A   1     1.16707  0.82887  0.49082  11.00000  0.02240  0.02325  0.02921 =
 0.00688  0.00850  0.01295 

C99A  1     0.03335  0.83038  0.15133  11.00000  0.02437  0.02177  0.03326 =
 -0.00241  0.00058  0.01077 

C65A  1     0.39710  0.62552  0.13890  11.00000  0.02345  0.02571  0.03081 =
 0.00281  0.00709  0.01249 

C46   1     0.30699  0.31295  0.28842  11.00000  0.01996  0.01711  0.03468 =
 0.00700  0.00962  0.00910 

C10A  1     1.18017  0.86259  0.41239  11.00000  0.02315  0.02845  0.02550 =
 0.00432  0.00409  0.01516 

C39A  1     0.55167  0.12469  0.25361  11.00000  0.02404  0.02075  0.02684 =
 0.00484  0.00717  0.01064 
C51   1     0.21683  0.24723  0.25060  11.00000  0.02101  0.02196  0.03682 =
 0.00626  0.00804  0.01036 

C69A  1     0.44201  0.55049  0.12852  11.00000  0.02327  0.02230  0.02617 =
 0.00363  0.00548  0.01195 

C21   1     1.27027  1.13268  0.60846  11.00000  0.02306  0.02576  0.02741 =
 0.00031  0.00332  0.01062 

C44   1     0.35402  0.49684  0.28468  11.00000  0.02797  0.02030  0.03002 =
 0.00454  0.00632  0.01328 

C16   1     1.31825  1.17051  0.57055  11.00000  0.02020  0.01966  0.02896 =
 0.00159  0.00118  0.00926 

C75   1     0.58022  0.11073  0.11113  11.00000  0.03279  0.02326  0.02976 =
 0.00228  0.00012  0.01479 

C36   1     0.74460  0.25257  0.28886  11.00000  0.02303  0.02786  0.02818 =
 0.00652  0.00812  0.00908 

C95A  1    -0.02986  0.89535  0.14596  11.00000  0.02397  0.02319  0.03455 =
 -0.00104  0.00106  0.01133 

C17   1     1.42800  1.16976  0.56281  11.00000  0.02133  0.02495  0.03334 =
 0.00480  0.00458  0.01045 
C5A   1     1.13178  0.72389  0.47977  11.00000  0.02714  0.02450  0.03667 =
 0.00756  0.00974  0.01404 
C20   1     1.33609  1.09132  0.63958  11.00000  0.02661  0.03464  0.02614 =
 0.00325  0.00279  0.01362 
AFIX 43
H20   2     1.30602  1.06436  0.66562  11.00000 -1.20000 
AFIX 0

C45   1     0.44139  0.57932  0.27680  11.00000  0.03133  0.01954  0.03104 =
 0.00512  0.00742  0.01116 

C81   1     0.65987  0.39292  0.04882  11.00000  0.03204  0.02687  0.02892 =
 0.00616  0.01068  0.01594 
C72   1     0.52054  0.26106  0.11818  11.00000  0.02396  0.02249  0.02714 =
 0.00390  0.00526  0.00998 
C77   1     0.78585  0.44834  0.13029  11.00000  0.02186  0.02610  0.03314 =
 0.00641  0.00894  0.01204 

C4A   1     1.14858  0.76135  0.39222  11.00000  0.02713  0.03282  0.02966 =
 -0.00057  0.00328  0.01744 

C76   1     0.69409  0.37579  0.09538  11.00000  0.02293  0.02251  0.03112 =
 0.00669  0.01041  0.01330 
C74   1     0.66398  0.19595  0.10342  11.00000  0.02884  0.02531  0.02704 =
 0.00221  0.00158  0.01711 

C39   1     0.42497  0.09508  0.24525  11.00000  0.02461  0.02524  0.03594 =
 0.00574  0.00752  0.01075 
AFIX 43
H39   2     0.39225  0.14537  0.24934  11.00000 -1.20000 
AFIX 0
C47   1     0.32938  0.28877  0.33422  11.00000  0.02552  0.02386  0.03506 =
 0.00934  0.00939  0.00975 

C64A  1     0.18504  0.48464  0.09278  11.00000  0.02289  0.02821  0.03340 =
 0.00639  0.00855  0.01299 

C12   1     1.18041  1.15163  0.49542  11.00000  0.01970  0.02230  0.03036 =
 0.00683  0.00465  0.00972 

C50   1     0.14721  0.15265  0.25995  11.00000  0.02279  0.02116  0.04500 =
 0.00360  0.00860  0.00620 
AFIX 43
H50   2     0.08542  0.10571  0.23503  11.00000 -1.20000 
AFIX 0

C14   1     1.25882  1.31093  0.54299  11.00000  0.02305  0.01752  0.03994 =
 0.00433  0.00989  0.00882 

C34A  1     0.80899  0.18841  0.28766  11.00000  0.02415  0.03668  0.02868 =
 0.00965  0.00920  0.01346 

C18   1     1.49003  1.12809  0.59520  11.00000  0.02226  0.03568  0.03884 =
 0.00734  0.00541  0.01552 
AFIX 43
H18   2     1.56483  1.12643  0.59127  11.00000 -1.20000 
AFIX 0
C19   1     1.44466  1.08920  0.63288  11.00000  0.02675  0.03736  0.03165 =
 0.00605 -0.00008  0.01641 
AFIX 43
H19   2     1.48822  1.06083  0.65433  11.00000 -1.20000 
AFIX 0

C78   1     0.84535  0.54187  0.11729  11.00000  0.02636  0.02611  0.04000 =
 0.00410  0.01031  0.00684 
AFIX 43
H78   2     0.90838  0.59308  0.14019  11.00000 -1.20000 
AFIX 0

C100  1     0.12883  0.87595  0.08541  11.00000  0.03150  0.02953  0.02901 =
 -0.00394  0.00045  0.01421 

C70A  1     0.25250  0.42392  0.08824  11.00000  0.02237  0.02460  0.02989 =
 0.00585  0.00725  0.01100 

C99   1     0.03897  0.78736  0.19303  11.00000  0.02448  0.02603  0.03997 =
 0.00237  0.00088  0.01118 
AFIX 43
H99   2     0.07955  0.74197  0.19733  11.00000 -1.20000 
AFIX 0
C94A  1     0.07779  0.94680  0.07392  11.00000  0.03258  0.03082  0.02981 =
 -0.00156 -0.00149  0.01480 

C66   1     0.47179  0.72754  0.15268  11.00000  0.03444  0.02432  0.03976 =
 -0.00091  0.00815  0.01440 
AFIX 43
H66   2     0.43775  0.77648  0.15795  11.00000 -1.20000 
AFIX 0

C1    1     1.22748  0.93641  0.38403  11.00000  0.03108  0.04000  0.03475 =
 0.01508  0.01038  0.02186 
AFIX 43
H1    2     1.24774  1.00569  0.39561  11.00000 -1.20000 
AFIX 0

C42   1     0.48809  0.42274  0.26822  11.00000  0.02330  0.02087  0.03197 =
 0.00499  0.00889  0.00824 

C15   1     1.19244  1.33086  0.50495  11.00000  0.02542  0.01977  0.04563 =
 0.00946  0.01269  0.01125 
C25   1     1.14971  1.13134  0.61581  11.00000  0.02641  0.03870  0.03126 =
 0.00788  0.00851  0.01823 
AFIX 13
H25   2     1.11406  1.16011  0.58930  11.00000 -1.20000 
AFIX 0

C35A  1     0.59379  0.04622  0.24698  11.00000  0.02919  0.02520  0.02809 =
 0.00496  0.01008  0.01381 
C38   1     0.34804 -0.00429  0.23138  11.00000  0.02678  0.03239  0.03667 =
 0.00456  0.00902  0.00522 
AFIX 43
H38   2     0.26353 -0.02114  0.22528  11.00000 -1.20000 
AFIX 0

C9    1     1.20383  0.86969  0.53968  11.00000  0.03250  0.03506  0.02978 =
 0.00563  0.00924  0.01777 
AFIX 43
H9    2     1.22681  0.94033  0.54881  11.00000 -1.20000 
AFIX 0

C69   1     0.56863  0.58387  0.13521  11.00000  0.02318  0.02602  0.03558 =
 0.00304  0.00654  0.01240 
AFIX 43
H69   2     0.60366  0.53592  0.12934  11.00000 -1.20000 
AFIX 0

C55   1     0.19541  0.27312  0.20067  11.00000  0.02744  0.02670  0.03589 =
 0.00520  0.00048  0.00804 
AFIX 13
H55   2     0.24662  0.34574  0.20178  11.00000 -1.20000 
AFIX 0

C98   1    -0.01425  0.81060  0.22795  11.00000  0.02778  0.03396  0.03734 =
 0.00464  0.00455  0.00873 
AFIX 43
H98   2    -0.01110  0.77990  0.25582  11.00000 -1.20000 
AFIX 0

C82   1     0.81594  0.43085  0.18145  11.00000  0.02555  0.03101  0.03263 =
 0.00645  0.00238  0.01051 
AFIX 13
H82   2     0.78226  0.35640  0.18193  11.00000 -1.20000 
AFIX 0

C94   1     0.12283  1.01693  0.04445  11.00000  0.03669  0.03701  0.03421 =
 0.00440 -0.00467  0.01253 
AFIX 43
H94   2     0.09003  1.06697  0.03840  11.00000 -1.20000 
AFIX 0

C49   1     0.16666  0.12624  0.30477  11.00000  0.03063  0.02145  0.05188 =
 0.01144  0.01659  0.00665 
AFIX 43
H49   2     0.11822  0.06169  0.31038  11.00000 -1.20000 
AFIX 0

C64   1     0.06837  0.45968  0.06511  11.00000  0.02444  0.04212  0.04214 =
 0.01025  0.00652  0.01817 
AFIX 43
H64   2     0.02662  0.50363  0.06834  11.00000 -1.20000 
AFIX 0
C67   1     0.59397  0.75719  0.15861  11.00000  0.03182  0.02374  0.04271 =
 -0.00161  0.00568  0.00734 
AFIX 43
H67   2     0.64514  0.82633  0.16841  11.00000 -1.20000 
AFIX 0
C68   1     0.64232  0.68409  0.15002  11.00000  0.02339  0.03008  0.03986 =
 0.00175  0.00547  0.00808 
AFIX 43
H68   2     0.72700  0.70389  0.15447  11.00000 -1.20000 
AFIX 0

C48   1     0.25654  0.19356  0.34158  11.00000  0.03547  0.02692  0.04160 =
 0.01527  0.01362  0.01065 
AFIX 43
H48   2     0.26881  0.17469  0.37228  11.00000 -1.20000 
AFIX 0

C96   1    -0.08038  0.92064  0.18195  11.00000  0.02327  0.02492  0.04425 =
 -0.00294  0.00471  0.01098 
AFIX 43
H96   2    -0.12003  0.96679  0.17817  11.00000 -1.20000 
AFIX 0

C52   1     0.43081  0.35988  0.37460  11.00000  0.03369  0.02928  0.03133 =
 0.00922  0.00615  0.00690 
AFIX 13
H52   2     0.46999  0.42415  0.36251  11.00000 -1.20000 
AFIX 0
C31   1     0.81041  0.35044  0.31490  11.00000  0.03363  0.02992  0.03674 =
 0.00334  0.00812  0.00470 
AFIX 43
H31   2     0.77178  0.39726  0.31629  11.00000 -1.20000 
AFIX 0

C80   1     0.72271  0.48759  0.03777  11.00000  0.04187  0.03347  0.03202 =
 0.01139  0.01563  0.01705 
AFIX 43
H80   2     0.70234  0.50158  0.00648  11.00000 -1.20000 
AFIX 0
C61   1     0.19262  0.33238  0.05590  11.00000  0.02752  0.02686  0.03866 =
 0.00258  0.00702  0.01067 
AFIX 43
H61   2     0.23312  0.28755  0.05240  11.00000 -1.20000 
AFIX 0

C28   1     1.33136  1.38155  0.58783  11.00000  0.03354  0.02183  0.04992 =
 -0.00352  0.00399  0.00942 
AFIX 137
H28a  2     1.28191  1.37446  0.61131  11.00000 -1.50000 
H28b  2     1.40169  1.36539  0.60039  11.00000 -1.50000 
H28c  2     1.35814  1.45120  0.58126  11.00000 -1.50000 
AFIX 0
C2    1     1.24479  0.90999  0.34003  11.00000  0.03720  0.06819  0.03421 =
 0.02366  0.01480  0.03408 
AFIX 43
H2    2     1.27632  0.96128  0.32182  11.00000 -1.20000 
AFIX 0

C3    1     0.51508 -0.05529  0.23434  11.00000  0.04604  0.02228  0.03699 =
 0.00321  0.01663  0.01495 
AFIX 43
H3    2     0.54658 -0.10671  0.23141  11.00000 -1.20000 
AFIX 0

C97   1    -0.07264  0.87853  0.22296  11.00000  0.02776  0.03356  0.04090 =
 -0.00207  0.00873  0.00980 
AFIX 43
H97   2    -0.10669  0.89551  0.24767  11.00000 -1.20000 
AFIX 0

C22   1     1.48018  1.21283  0.52186  11.00000  0.02454  0.03695  0.04536 =
 0.01790  0.01216  0.01702 
AFIX 13
H22   2     1.41591  1.22559  0.49943  11.00000 -1.20000 
AFIX 0
C6    1     1.13715  0.66322  0.51517  11.00000  0.04308  0.03215  0.05777 =
 0.02238  0.01893  0.02273 
AFIX 43
H6    2     1.11457  0.59247  0.50655  11.00000 -1.20000 
AFIX 0

C85   1     0.55970  0.31294  0.01121  11.00000  0.04517  0.03066  0.02691 =
 0.00497  0.00559  0.01500 
AFIX 13
H85   2     0.52003  0.25448  0.02698  11.00000 -1.20000 
AFIX 0

C91   1     0.22242  0.87274  0.06444  11.00000  0.03697  0.04176  0.03459 =
 -0.00264  0.00565  0.01987 
AFIX 43
H91   2     0.25784  0.82461  0.07126  11.00000 -1.20000 
AFIX 0

C37   1     0.39280 -0.08091  0.22616  11.00000  0.04150  0.02319  0.03957 =
 0.00034  0.01363  0.00321 
AFIX 43
H37   2     0.33938 -0.14958  0.21710  11.00000 -1.20000 
AFIX 0

C62   1     0.07699  0.30680  0.02938  11.00000  0.02914  0.03499  0.03696 =
 0.00039  0.00268  0.00526 
AFIX 43
H62   2     0.03912  0.24453  0.00819  11.00000 -1.20000 
AFIX 0

C58   1     0.23816  0.49082  0.29621  11.00000  0.03301  0.02966  0.05852 =
 0.00753  0.01767  0.01833 
AFIX 137
H58a  2     0.17424  0.42660  0.28008  11.00000 -1.50000 
H58b  2     0.24626  0.49486  0.33067  11.00000 -1.50000 
H58c  2     0.21773  0.54704  0.28545  11.00000 -1.50000 
AFIX 0

C88   1     0.78301  0.20923  0.09277  11.00000  0.03019  0.03681  0.04932 =
 0.00179  0.00839  0.02175 
AFIX 137
H88a  2     0.79751  0.14654  0.09507  11.00000 -1.50000 
H88b  2     0.78295  0.22540  0.06052  11.00000 -1.50000 
H88c  2     0.84675  0.26445  0.11571  11.00000 -1.50000 
AFIX 0

C59   1     0.44424  0.68480  0.27822  11.00000  0.04895  0.01989  0.05042 =
 0.00618  0.01179  0.01507 
AFIX 137
H59a  2     0.52173  0.72958  0.27334  11.00000 -1.50000 
H59b  2     0.37892  0.68584  0.25302  11.00000 -1.50000 
H59c  2     0.43395  0.70805  0.30922  11.00000 -1.50000 
AFIX 0

C79   1     0.81383  0.56107  0.07152  11.00000  0.03686  0.02863  0.04372 =
 0.01260  0.01946  0.01059 
AFIX 43
H79   2     0.85517  0.62513  0.06337  11.00000 -1.20000 
AFIX 0
C63   1     0.01450  0.37089  0.03314  11.00000  0.02189  0.04891  0.04121 =
 0.00616  0.00039  0.01147 
AFIX 43
H63   2    -0.06417  0.35353  0.01391  11.00000 -1.20000 
AFIX 0

C34   1     0.92902  0.21780  0.31292  11.00000  0.02407  0.06269  0.03862 =
 0.01841  0.00967  0.01953 
AFIX 43
H34   2     0.96870  0.17161  0.31236  11.00000 -1.20000 
AFIX 0

C26   1     1.06415  1.02237  0.61388  11.00000  0.02331  0.04246  0.05310 =
 0.00894  0.00755  0.01165 
AFIX 137
H26a  2     1.09650  0.99357  0.64023  11.00000 -1.50000 
H26b  2     0.98501  1.02147  0.61657  11.00000 -1.50000 
H26c  2     1.05611  0.98225  0.58359  11.00000 -1.50000 
AFIX 0
C4    1     1.21691  0.80957  0.32183  11.00000  0.04349  0.07996  0.02655 =
 0.00636  0.00821  0.04015 
AFIX 43
H4    2     1.23140  0.79251  0.29184  11.00000 -1.20000 
AFIX 0
C5    1     1.16810  0.73504  0.34766  11.00000  0.03868  0.05333  0.03258 =
 -0.00707  0.00261  0.02882 
AFIX 43
H5    2     1.14771  0.66609  0.33538  11.00000 -1.20000 
AFIX 0

C89   1     0.58095  0.00606  0.10823  11.00000  0.04706  0.02433  0.04863 =
 0.00247 -0.00067  0.01848 
AFIX 137
H89a  2     0.54233 -0.03034  0.07580  11.00000 -1.50000 
H89b  2     0.66424  0.01000  0.11646  11.00000 -1.50000 
H89c  2     0.53676 -0.02992  0.13053  11.00000 -1.50000 
AFIX 0

C29   1     1.17974  1.42929  0.49810  11.00000  0.04412  0.02561  0.06289 =
 0.01681  0.01739  0.02050 
AFIX 137
H29a  2     1.25763  1.47944  0.49645  11.00000 -1.50000 
H29b  2     1.12034  1.41994  0.46846  11.00000 -1.50000 
H29c  2     1.15295  1.45296  0.52492  11.00000 -1.50000 
AFIX 0
C23   1     1.51752  1.13866  0.49444  11.00000  0.04440  0.05337  0.04575 =
 0.01982  0.02146  0.02898 
AFIX 137
H23a  2     1.58111  1.12525  0.51560  11.00000 -1.50000 
H23b  2     1.44785  1.07529  0.48244  11.00000 -1.50000 
H23c  2     1.54763  1.16772  0.46765  11.00000 -1.50000 
AFIX 0
C8    1     1.20723  0.80989  0.57435  11.00000  0.04325  0.06082  0.03092 =
 0.01579  0.01456  0.02897 
AFIX 43
H8    2     1.23178  0.83963  0.60691  11.00000 -1.20000 
AFIX 0

C56   1     0.23315  0.20858  0.16746  11.00000  0.04352  0.05221  0.03757 =
 0.01018  0.01331  0.02199 
AFIX 137
H56a  2     0.18648  0.13690  0.16711  11.00000 -1.50000 
H56b  2     0.21811  0.22490  0.13523  11.00000 -1.50000 
H56c  2     0.31911  0.22249  0.17871  11.00000 -1.50000 
AFIX 0
C32   1     0.92977  0.37990  0.33845  11.00000  0.03409  0.04741  0.03685 =
 0.00428  0.00441 -0.00567 
AFIX 43
H32   2     0.97211  0.44694  0.35498  11.00000 -1.20000 
AFIX 0

C92   1     0.26280  0.93963  0.03391  11.00000  0.03789  0.05417  0.03354 =
 -0.00025  0.00556  0.01553 
AFIX 43
H92   2     0.32446  0.93557  0.01915  11.00000 -1.20000 
AFIX 0

C54   1     0.38429  0.38586  0.41713  11.00000  0.05197  0.04958  0.04104 =
 0.00048  0.01594  0.00723 
AFIX 137
H54a  2     0.34439  0.32393  0.42946  11.00000 -1.50000 
H54b  2     0.45192  0.43258  0.44207  11.00000 -1.50000 
H54c  2     0.32666  0.41779  0.40718  11.00000 -1.50000 
AFIX 0
C33   1     0.98874  0.31291  0.33830  11.00000  0.02233  0.07000  0.04110 =
 0.01566  0.00272  0.00427 
AFIX 43
H33   2     1.06975  0.33304  0.35567  11.00000 -1.20000 
AFIX 0

C84   1     0.95127  0.47088  0.20311  11.00000  0.02935  0.05554  0.05251 =
 0.01163  0.00157  0.01747 
AFIX 137
H84a  2     0.98391  0.54491  0.20746  11.00000 -1.50000 
H84b  2     0.96579  0.44847  0.23400  11.00000 -1.50000 
H84c  2     0.99090  0.44492  0.18178  11.00000 -1.50000 
AFIX 0

C93   1     0.21502  1.01312  0.02423  11.00000  0.03919  0.05160  0.03300 =
 0.00910 -0.00084  0.01012 
AFIX 43
H93   2     0.24567  1.06001  0.00395  11.00000 -1.20000 
AFIX 0

C7    1     1.17500  0.70589  0.56227  11.00000  0.05284  0.05697  0.04962 =
 0.03378  0.02258  0.03375 
AFIX 43
H7    2     1.17923  0.66513  0.58637  11.00000 -1.20000 
AFIX 0

C83   1     0.75535  0.48003  0.21113  11.00000  0.04939  0.07434  0.03369 =
 0.01484  0.01487  0.03769 
AFIX 137
H83a  2     0.77366  0.46844  0.24409  11.00000 -1.50000 
H83b  2     0.78520  0.55286  0.21022  11.00000 -1.50000 
H83c  2     0.66804  0.45056  0.19825  11.00000 -1.50000 
AFIX 0
C86   1     0.46377  0.35238 -0.01119  11.00000  0.04513  0.04782  0.04341 =
 0.00431 -0.00295  0.01886 
AFIX 137
H86a  2     0.43405  0.37881  0.01393  11.00000 -1.50000 
H86b  2     0.49919  0.40645 -0.02897  11.00000 -1.50000 
H86c  2     0.39678  0.29706 -0.03285  11.00000 -1.50000 
AFIX 0

C57   1     0.06418  0.25843  0.18147  11.00000  0.03691  0.05628  0.05209 =
 0.00698 -0.00126  0.02631 
AFIX 137
H57a  2     0.05651  0.28622  0.15170  11.00000 -1.50000 
H57b  2     0.01393  0.18614  0.17550  11.00000 -1.50000 
H57c  2     0.03784  0.29348  0.20486  11.00000 -1.50000 
AFIX 0

C87   1     0.61309  0.27537 -0.02659  11.00000  0.07591  0.05629  0.03662 =
 -0.00617  0.01043  0.03296 
AFIX 137
H87a  2     0.65581  0.33217 -0.04155  11.00000 -1.50000 
H87b  2     0.66945  0.24602 -0.01161  11.00000 -1.50000 
H87c  2     0.54819  0.22389 -0.05082  11.00000 -1.50000 
AFIX 0

C53   1     0.52642  0.31491  0.38943  11.00000  0.04422  0.05608  0.04778 =
 0.01148 -0.00425  0.02002 
AFIX 137
H53a  2     0.59293  0.36311  0.41431  11.00000 -1.50000 
H53b  2     0.49048  0.25186  0.40165  11.00000 -1.50000 
H53c  2     0.55695  0.30102  0.36181  11.00000 -1.50000 
AFIX 0

C27   1     1.16401  1.19533  0.66283  11.00000  0.04945  0.05198  0.04410 =
 0.00315  0.02040  0.02701 
AFIX 137
H27a  2     1.08468  1.19157  0.66677  11.00000 -1.50000 
H27b  2     1.20169  1.16973  0.68919  11.00000 -1.50000 
H27c  2     1.21484  1.26577  0.66270  11.00000 -1.50000 
AFIX 0
C24   1     1.58534  1.31382  0.54011  11.00000  0.04093  0.03658  0.08231 =
 0.01938  0.02528  0.01068 
AFIX 137
H24a  2     1.55673  1.36229  0.55446  11.00000 -1.50000 
H24b  2     1.64723  1.30431  0.56402  11.00000 -1.50000 
H24c  2     1.61959  1.33973  0.51355  11.00000 -1.50000 
AFIX 0
HKLF 4

END
Q1 1 -0.05 0.911111 0.125 11 0.05 0.36
Q2 1 1.3 1.155556 0.59375 11 0.05 0.33
Q3 1 0.8 0.444444 0.15625 11 0.05 0.32
Q4 1 0.775 0.133333 0.270833 11 0.05 0.3
Q5 1 1.15 0.8 0.395833 11 0.05 0.3

  REM The information below was added by Olex2.
  REM
  REM R1 = 0.0326 for 18782 Fo > 4sig(Fo) and 0.0339 for all 19798 data
  REM 1139 parameters refined using 0 restraints
  REM Highest difference peak 0.3618, deepest hole -0.4962
  REM Mean Shift 0.0101, Max Shift 0.1414.

  REM +++ Tabular Listing of Refinement Information +++
  REM R1_all = 0.0339
  REM R1_gt = 0.0326
  REM wR_ref = 0.0916
  REM GOOF = 1.0354
  REM Shift_max = 0.1414
  REM Shift_mean = 0.0101
  REM Reflections_all = 19798
  REM Reflections_gt = 18782
  REM Parameters = 1139
  REM Hole = -0.4962
  REM Peak = 0.3618
  REM Flack = n/a

  
;
_olex2_submission_special_instructions 'No special instructions were received'
_oxdiff_exptl_absorpt_empirical_details 
;
Empirical correction (ABSPACK) includes:
- Absorption correction using spherical harmonics
- Frame scaling
;
_oxdiff_exptl_absorpt_empirical_full_max 1.470
_oxdiff_exptl_absorpt_empirical_full_min 0.684
####################################################################### 
# 
# This file contains crystal structure data downloaded from the 
# Cambridge Structural Database (CSD) hosted by the Cambridge 
# Crystallographic Data Centre (CCDC).
# 
# Full information about CCDC data access policies and citation 
# guidelines are available at http://www.ccdc.cam.ac.uk/access/V1 
# 
# Audit and citation data items may have been added by the CCDC. 
# Please retain this information to preserve the provenance of 
# this file and to allow appropriate attribution of the data. 
# 
#######################################################################

data_pk14try2
_database_code_depnum_ccdc_archive 'CCDC 2209354'
loop_
_audit_author_name
_audit_author_address
'Sergey Belyakov'
;Latvian Institute of Organic Synthesis
Latvia
;
_audit_update_record             
;
2022-09-25 deposited with the CCDC.	2022-12-27 downloaded from the CCDC.
;
_audit_creation_date             2022-03-01
_audit_creation_method           
;
Olex2 1.2-ac4
(compiled 2018.05.17 svn.r3504 for Rigaku Oxford Diffraction, GUI svn.r5492)
;
_shelx_SHELXL_version_number     2018/3
_chemical_name_common            ?
_chemical_name_systematic        ?
_chemical_formula_moiety         '4(C29 H31 Cu N2 O2 S2), C5 H10'
_chemical_formula_sum            'C121 H134 Cu4 N8 O8 S8'
_chemical_formula_weight         2338.99
_chemical_melting_point          ?
_chemical_oxdiff_formula         'C232 H248 Cu8 N16 O16 S16 '
_chemical_oxdiff_usercomment     'from Kaspars'
loop_
_atom_type_symbol
_atom_type_description
_atom_type_scat_dispersion_real
_atom_type_scat_dispersion_imag
_atom_type_scat_source
C C 0.0181 0.0091 'International Tables Vol C Tables 4.2.6.8 and 6.1.1.4'
H H 0.0000 0.0000 'International Tables Vol C Tables 4.2.6.8 and 6.1.1.4'
Cu Cu -1.9646 0.5888 'International Tables Vol C Tables 4.2.6.8 and 6.1.1.4'
N N 0.0311 0.0180 'International Tables Vol C Tables 4.2.6.8 and 6.1.1.4'
O O 0.0492 0.0322 'International Tables Vol C Tables 4.2.6.8 and 6.1.1.4'
S S 0.3331 0.5567 'International Tables Vol C Tables 4.2.6.8 and 6.1.1.4'

_shelx_space_group_comment       
;
The symmetry employed for this shelxl refinement is uniquely defined
by the following loop, which should always be used as a source of
symmetry information in preference to the above space-group names.
They are only intended as comments.
;
_space_group_crystal_system      monoclinic
_space_group_IT_number           14
_space_group_name_H-M_alt        'P 1 21/c 1'
_space_group_name_Hall           '-P 2ybc'
loop_
_space_group_symop_operation_xyz
'x, y, z'
'-x, y+1/2, -z+1/2'
'-x, -y, -z'
'x, -y-1/2, z-1/2'

_cell_length_a                   13.1244(3)
_cell_length_b                   35.6810(5)
_cell_length_c                   14.4150(3)
_cell_angle_alpha                90
_cell_angle_beta                 116.810(2)
_cell_angle_gamma                90
_cell_volume                     6024.8(2)
_cell_formula_units_Z            2
_cell_measurement_reflns_used    20984
_cell_measurement_temperature    150.0(1)
_cell_measurement_theta_max      79.9920
_cell_measurement_theta_min      3.6250
_shelx_estimated_absorpt_T_max   0.928
_shelx_estimated_absorpt_T_min   0.658
_exptl_absorpt_coefficient_mu    2.537
_exptl_absorpt_correction_T_max  0.90174
_exptl_absorpt_correction_T_min  0.78805
_exptl_absorpt_correction_type   multi-scan
_exptl_absorpt_process_details   
;
CrysAlisPro 1.171.41.123a (Rigaku Oxford Diffraction, 2022)
Empirical absorption correction using spherical harmonics,
implemented in SCALE3 ABSPACK scaling algorithm.
;
_exptl_absorpt_special_details   ?
_exptl_crystal_colour            Colourless
_exptl_crystal_density_diffrn    1.289
_exptl_crystal_density_meas      ?
_exptl_crystal_density_method    ?
_exptl_crystal_description       Needle
_exptl_crystal_F_000             2448
_exptl_crystal_size_max          0.18
_exptl_crystal_size_mid          0.04
_exptl_crystal_size_min          0.03
_exptl_transmission_factor_max   ?
_exptl_transmission_factor_min   ?
_diffrn_reflns_av_R_equivalents  0.0253
_diffrn_reflns_av_unetI/netI     0.0281
_diffrn_reflns_Laue_measured_fraction_full 0.960
_diffrn_reflns_Laue_measured_fraction_max 0.914
_diffrn_reflns_limit_h_max       15
_diffrn_reflns_limit_h_min       -16
_diffrn_reflns_limit_k_max       45
_diffrn_reflns_limit_k_min       -45
_diffrn_reflns_limit_l_max       17
_diffrn_reflns_limit_l_min       -11
_diffrn_reflns_number            37141
_diffrn_reflns_point_group_measured_fraction_full 0.98
_diffrn_reflns_point_group_measured_fraction_max 0.914
_diffrn_reflns_theta_full        66.0
_diffrn_reflns_theta_max         80.348
_diffrn_reflns_theta_min         3.652
_diffrn_ambient_environment      N~2~
_diffrn_ambient_temperature      150.0(1)
_diffrn_detector                 'Hybrid Pixel Array Detector'
_diffrn_detector_area_resol_mean 10.0000
_diffrn_detector_type            HyPix
_diffrn_measured_fraction_theta_full 0.98
_diffrn_measured_fraction_theta_max 0.914
_diffrn_measurement_details      
;
List of Runs (angles in degrees, time in seconds):

  # Type    Start    End  Width  t~exp~   \w     \q     \k     \f   Frames
#--------------------------------------------------------------------------
  1  \w    -72.00 -20.00   0.50    2.00    --  -49.98  91.00  90.00  104
  2  \w    -46.00 -21.00   0.50    7.00    --  -90.00  33.00 -86.00   50
  3  \w     41.00  67.00   0.50    7.00    --  111.50-119.00-101.00   52
  4  \w    131.00 175.00   0.50    7.00    --  111.50  91.00  90.00   88
  5  \w    110.00 174.00   0.50    7.00    --  111.50  33.00 -86.00  128
  6  \w     82.00 108.00   0.50    7.00    --  111.50-119.00-101.00   52
  7  \w   -122.00 -88.00   0.50    2.00    --  -49.98 -77.00   0.00   68
  8  \w   -121.00 -94.00   0.50    2.00    --  -49.98 -77.00  60.00   54
  9  \w   -109.00 -83.00   0.50    2.00    --  -49.98-125.00-120.00   52
 10  \w     90.00 120.00   0.50    2.00    --   49.98  77.00 120.00   60
 11  \w     88.00 122.00   0.50    2.00    --   49.98  77.00 -30.00   68
 12  \w    -44.00 -19.00   0.50    7.00    --  -90.00  30.00 -60.00   50
 13  \w     42.00  68.00   0.50    7.00    --  111.50 -61.00 -30.00   52
 14  \w    110.00 141.00   0.50    7.00    --  111.50  30.00   0.00   62
 15  \w     41.00  66.00   0.50    7.00    --  111.50 -61.00  30.00   50
 16  \w     50.00  88.00   0.50    7.00    --  111.50 -77.00   0.00   76
 17  \w     45.00  76.00   0.50    7.00    --  111.50 -77.00  60.00   62
 18  \w    149.00 176.00   0.50    7.00    --  111.50  30.00   0.00   54
 19  \w     41.00  66.00   0.50    7.00    --  111.50 -61.00-150.00   50
 20  \w     43.00  68.00   0.50    7.00    --  111.50 -61.00-120.00   50
 21  \w     41.00  66.00   0.50    7.00    --  111.50 -61.00 150.00   50
 22  \w     41.00  84.00   0.50    7.00    --  111.50 -77.00-120.00   86
 23  \w     43.00  68.00   0.50    7.00    --  111.50 -61.00  60.00   50
 24  \w     56.00  81.00   0.50    7.00    --  111.50 -77.00 120.00   50
 25  \w     41.00  66.00   0.50    7.00    --  111.50 -61.00   0.00   50
 26  \w     43.00  68.00   0.50    7.00    --  111.50 -61.00 120.00   50
 27  \w     60.00 106.00   0.50    7.00    --  111.50 -91.00 -22.00   92
;
_diffrn_measurement_device       'four-circle diffractometer'
_diffrn_measurement_device_type  'Rigaku, XtaLAB Synergy, Dualflex, HyPix'
_diffrn_measurement_method       '\w scans'
_diffrn_orient_matrix_type       
'CrysAlisPro convention (1999,Acta A55,543-557)'
_diffrn_orient_matrix_UB_11      0.1136529000
_diffrn_orient_matrix_UB_12      -0.0217477000
_diffrn_orient_matrix_UB_13      0.0484024000
_diffrn_orient_matrix_UB_21      0.0659236000
_diffrn_orient_matrix_UB_22      0.0368961000
_diffrn_orient_matrix_UB_23      0.0122872000
_diffrn_orient_matrix_UB_31      0.0073764000
_diffrn_orient_matrix_UB_32      0.0055004000
_diffrn_orient_matrix_UB_33      0.1087888000
_diffrn_oxdiff_digest_frames     
;
01fdd69640e246a74b6963b73ddf46cf2e000286d18
;
_diffrn_oxdiff_digest_hkl        
;
010df181f85ff925b7c481fd99248321406ede
;
_diffrn_radiation_monochromator  mirror
_diffrn_radiation_probe          x-ray
_diffrn_radiation_type           CuK\a
_diffrn_radiation_wavelength     1.54184
_diffrn_source                   'micro-focus sealed X-ray tube'
_diffrn_source_type              'PhotonJet (Cu) X-ray Source'
_reflns_Friedel_coverage         0.000
_reflns_Friedel_fraction_full    .
_reflns_Friedel_fraction_max     .
_reflns_number_gt                10919
_reflns_number_total             12061
_reflns_odcompleteness_completeness 92.86
_reflns_odcompleteness_iscentric 1
_reflns_odcompleteness_theta     77.49
_reflns_special_details          
;
 Reflections were merged by SHELXL according to the crystal
 class for the calculation of statistics and refinement.
 
 _reflns_Friedel_fraction is defined as the number of unique
 Friedel pairs measured divided by the number that would be
 possible theoretically, ignoring centric projections and
 systematic absences.
;

# start Validation Reply Form
_vrf_PLAT201_pk14try2            
;
PROBLEM: Isotropic non-H Atoms in Main Residue(s) .......          2 Report
RESPONSE: C53 and C54 are disordered atoms in the crystal 
structure. 
;
# end Validation Reply Form

_reflns_threshold_expression     'I > 2\s(I)'
_computing_cell_refinement       'CrysAlisPro 1.171.41.123a (Rigaku OD, 2022)'
_computing_data_collection       'CrysAlisPro 1.171.41.123a (Rigaku OD, 2022)'
_computing_data_reduction        'CrysAlisPro 1.171.41.123a (Rigaku OD, 2022)'
_computing_molecular_graphics    'Olex2 (Dolomanov et al., 2009)'
_computing_publication_material  'Olex2 (Dolomanov et al., 2009)'
_computing_structure_refinement  'ShelXL (Sheldrick, 2015)'
_computing_structure_solution    ?
_refine_diff_density_max         1.051
_refine_diff_density_min         -0.652
_refine_diff_density_rms         0.077
_refine_ls_extinction_coef       .
_refine_ls_extinction_method     none
_refine_ls_goodness_of_fit_ref   1.032
_refine_ls_hydrogen_treatment    constr
_refine_ls_matrix_type           full
_refine_ls_number_parameters     675
_refine_ls_number_reflns         12061
_refine_ls_number_restraints     0
_refine_ls_R_factor_all          0.0494
_refine_ls_R_factor_gt           0.0450
_refine_ls_restrained_S_all      1.032
_refine_ls_shift/su_max          0.005
_refine_ls_shift/su_mean         0.000
_refine_ls_structure_factor_coef Fsqd
_refine_ls_weighting_details     
'w=1/[\s^2^(Fo^2^)+(0.0728P)^2^+5.5020P] where P=(Fo^2^+2Fc^2^)/3'
_refine_ls_weighting_scheme      calc
_refine_ls_wR_factor_gt          0.1256
_refine_ls_wR_factor_ref         0.1294
_refine_special_details          ?
_olex2_refinement_description    
;
1. Fixed Uiso
 At 1.2 times of:
  All C(H) groups, All C(H,H) groups
 At 1.5 times of:
  All C(H,H,H) groups
2. Others
 Fixed Sof: C53(0.55) H53A(0.55) H53B(0.55) H53C(0.55) C54(0.55) H54A(0.55)
 H54B(0.55) H54C(0.55) C53'(0.45) H53D(0.45) H53E(0.45) H53F(0.45) C54'(0.45)
 H54D(0.45) H54E(0.45) H54F(0.45) C1S(0.5) H1SA(0.5) H1SB(0.5) C2S(0.5)
 H2S(0.5) C3S(0.5) H3SA(0.5) H3SB(0.5) C4S(0.5) H4SA(0.5) H4SB(0.5) C5S(0.5)
 H5SA(0.5) H5SB(0.5) H5SC(0.5)
3.a Riding coordinates:
 C52(H52)
3.b Ternary CH refined with riding coordinates:
 C22(H22), C25(H25), C55(H55)
3.c Secondary CH2 refined with riding coordinates:
 C3S(H3SA,H3SB), C4S(H4SA,H4SB)
3.d Me refined with riding coordinates:
 C53(H53A,H53B,H53C), C54(H54A,H54B,H54C), C53'(H53D,H53E,H53F), C54'(H54D,
 H54E,H54F), C56(H56A,H56B,H56C), C57(H57A,H57B,H57C), C5S(H5SA,H5SB,H5SC)
3.e Aromatic/amide H refined with riding coordinates:
 C1(H1), C2(H2), C3(H3), C4(H4), C6(H6), C7(H7), C8(H8), C9(H9), C18(H18),
 C19(H19), C20(H20), C31(H31), C32(H32), C33(H33), C34(H34), C36(H36), C37(H37),
  C38(H38), C39(H39), C48(H48), C49(H49), C50(H50), C2S(H2S)
3.f X=CH2 refined with riding coordinates:
 C1S(H1SA,H1SB)
3.g Idealised Me refined as rotating group:
 C23(H23A,H23B,H23C), C24(H24A,H24B,H24C), C26(H26A,H26B,H26C), C27(H27A,H27B,
 H27C), C28(H28A,H28B,H28C), C29(H29A,H29B,H29C), C58(H58A,H58B,H58C), C59(H59A,
 H59B,H59C)
;
_atom_sites_solution_hydrogens   mixed
_atom_sites_solution_primary     ?
_atom_sites_solution_secondary   ?
loop_
_atom_site_label
_atom_site_type_symbol
_atom_site_fract_x
_atom_site_fract_y
_atom_site_fract_z
_atom_site_U_iso_or_equiv
_atom_site_adp_type
_atom_site_occupancy
_atom_site_site_symmetry_order
_atom_site_calc_flag
_atom_site_refinement_flags_posn
_atom_site_refinement_flags_adp
_atom_site_refinement_flags_occupancy
_atom_site_disorder_assembly
_atom_site_disorder_group
Cu1 Cu 0.00580(2) 0.54261(2) 0.34801(2) 0.02363(9) Uani 1 1 d . . . . .
C1 C -0.25079(18) 0.54966(6) 0.26662(16) 0.0246(4) Uani 1 1 d . . . . .
H1 H -0.192407 0.551318 0.336158 0.030 Uiso 1 1 calc R . . . .
C2 C -0.36243(19) 0.55473(6) 0.24707(18) 0.0270(4) Uani 1 1 d . . . . .
H2 H -0.379705 0.559893 0.303093 0.032 Uiso 1 1 calc R . . . .
C3 C -0.45125(18) 0.55241(7) 0.14571(19) 0.0292(5) Uani 1 1 d . . . . .
H3 H -0.528022 0.556784 0.132445 0.035 Uiso 1 1 calc R . . . .
C4 C -0.42551(18) 0.54369(7) 0.06589(18) 0.0282(5) Uani 1 1 d . . . . .
H4 H -0.485039 0.541534 -0.002995 0.034 Uiso 1 1 calc R . . . .
C4A C -0.31186(17) 0.53797(6) 0.08543(16) 0.0220(4) Uani 1 1 d . . . . .
S5 S -0.28425(4) 0.51963(2) -0.01226(4) 0.02346(12) Uani 1 1 d . . . . .
O1 O -0.36320(14) 0.53432(6) -0.11264(12) 0.0353(4) Uani 1 1 d . . . . .
O2 O -0.27980(14) 0.47913(5) -0.00351(13) 0.0317(4) Uani 1 1 d . . . . .
C5A C -0.14793(18) 0.53636(6) 0.02354(16) 0.0228(4) Uani 1 1 d . . . . .
C6 C -0.11149(19) 0.54040(6) -0.05373(17) 0.0270(4) Uani 1 1 d . . . . .
H6 H -0.164173 0.536865 -0.124699 0.032 Uiso 1 1 calc R . . . .
C7 C 0.0001(2) 0.54944(7) -0.02711(18) 0.0298(5) Uani 1 1 d . . . . .
H7 H 0.025134 0.552566 -0.079054 0.036 Uiso 1 1 calc R . . . .
C8 C 0.07618(19) 0.55395(7) 0.07831(18) 0.0299(5) Uani 1 1 d . . . . .
H8 H 0.153845 0.559748 0.097797 0.036 Uiso 1 1 calc R . . . .
C9 C 0.04061(18) 0.55013(7) 0.15414(17) 0.0269(4) Uani 1 1 d . . . . .
H9 H 0.094611 0.553232 0.224884 0.032 Uiso 1 1 calc R . . . .
C9A C -0.07405(17) 0.54174(6) 0.12990(16) 0.0215(4) Uani 1 1 d . . . . .
N10 N -0.10642(14) 0.54053(5) 0.20876(13) 0.0227(4) Uani 1 1 d . . . . .
C10A C -0.22038(17) 0.54205(6) 0.18609(16) 0.0211(4) Uani 1 1 d . . . . .
S11 S 0.10712(4) 0.54919(2) 0.59512(4) 0.02757(13) Uani 1 1 d . . . . .
C12 C 0.12197(17) 0.54439(6) 0.48412(16) 0.0228(4) Uani 1 1 d . . . . .
N13 N 0.23450(14) 0.54139(5) 0.51265(13) 0.0196(3) Uani 1 1 d . . . . .
C14 C 0.30870(17) 0.54267(6) 0.61873(16) 0.0226(4) Uani 1 1 d . . . . .
C15 C 0.25253(18) 0.54707(6) 0.67667(16) 0.0242(4) Uani 1 1 d . . . . .
C16 C 0.27499(16) 0.53777(6) 0.43450(15) 0.0197(4) Uani 1 1 d . . . . .
C17 C 0.28139(16) 0.50190(6) 0.39816(15) 0.0207(4) Uani 1 1 d . . . . .
C18 C 0.31871(17) 0.49953(6) 0.32137(16) 0.0228(4) Uani 1 1 d . . . . .
H18 H 0.322992 0.475705 0.293936 0.027 Uiso 1 1 calc R . . . .
C19 C 0.34956(17) 0.53133(7) 0.28460(16) 0.0255(4) Uani 1 1 d . . . . .
H19 H 0.374629 0.529102 0.232459 0.031 Uiso 1 1 calc R . . . .
C20 C 0.34389(18) 0.56632(7) 0.32376(17) 0.0265(4) Uani 1 1 d . . . . .
H20 H 0.366124 0.587887 0.298736 0.032 Uiso 1 1 calc R . . . .
C21 C 0.30592(17) 0.57031(6) 0.39955(16) 0.0233(4) Uani 1 1 d . . . . .
C22 C 0.24850(19) 0.46663(6) 0.43701(17) 0.0254(4) Uani 1 1 d . . . . .
H22 H 0.232070 0.473621 0.496099 0.031 Uiso 1 1 calc R . . . .
C23 C 0.1397(2) 0.44938(7) 0.3503(2) 0.0341(5) Uani 1 1 d . . . . .
H23A H 0.155414 0.441023 0.293257 0.051 Uiso 1 1 calc GR . . . .
H23B H 0.078811 0.468225 0.324384 0.051 Uiso 1 1 calc GR . . . .
H23C H 0.115520 0.427924 0.377983 0.051 Uiso 1 1 calc GR . . . .
C24 C 0.3451(2) 0.43771(7) 0.4763(2) 0.0358(5) Uani 1 1 d . . . . .
H24A H 0.414978 0.449226 0.529160 0.054 Uiso 1 1 calc GR . . . .
H24B H 0.358315 0.429022 0.418119 0.054 Uiso 1 1 calc GR . . . .
H24C H 0.323815 0.416373 0.506708 0.054 Uiso 1 1 calc GR . . . .
C25 C 0.2975(2) 0.60915(7) 0.4389(2) 0.0331(5) Uani 1 1 d . . . . .
H25 H 0.265124 0.606533 0.489509 0.040 Uiso 1 1 calc R . . . .
C26 C 0.2177(3) 0.63390(9) 0.3497(3) 0.0560(8) Uani 1 1 d . . . . .
H26A H 0.142804 0.621799 0.314041 0.084 Uiso 1 1 calc GR . . . .
H26B H 0.249515 0.637603 0.300629 0.084 Uiso 1 1 calc GR . . . .
H26C H 0.209268 0.658222 0.377112 0.084 Uiso 1 1 calc GR . . . .
C27 C 0.4157(3) 0.62749(8) 0.4954(3) 0.0474(7) Uani 1 1 d . . . . .
H27A H 0.452169 0.627937 0.449190 0.071 Uiso 1 1 calc GR . . . .
H27B H 0.463026 0.613050 0.558001 0.071 Uiso 1 1 calc GR . . . .
H27C H 0.407300 0.653183 0.514970 0.071 Uiso 1 1 calc GR . . . .
C28 C 0.43333(19) 0.53785(8) 0.65603(19) 0.0345(5) Uani 1 1 d . . . . .
H28A H 0.463949 0.559673 0.635680 0.052 Uiso 1 1 calc GR . . . .
H28B H 0.447356 0.515180 0.625133 0.052 Uiso 1 1 calc GR . . . .
H28C H 0.471018 0.535505 0.731929 0.052 Uiso 1 1 calc GR . . . .
C29 C 0.3023(2) 0.54943(7) 0.79245(17) 0.0346(5) Uani 1 1 d . . . . .
H29A H 0.243185 0.543638 0.814088 0.052 Uiso 1 1 calc GR . . . .
H29B H 0.331351 0.574821 0.815157 0.052 Uiso 1 1 calc GR . . . .
H29C H 0.364990 0.531397 0.823978 0.052 Uiso 1 1 calc GR . . . .
Cu2 Cu 0.13617(3) 0.34598(2) 0.35940(3) 0.03115(10) Uani 1 1 d . . . . .
C31 C 0.1231(2) 0.35937(7) 0.5585(2) 0.0387(6) Uani 1 1 d . . . . .
H31 H 0.067129 0.362856 0.488630 0.046 Uiso 1 1 calc R . . . .
C32 C 0.0949(3) 0.36732(8) 0.6372(2) 0.0456(6) Uani 1 1 d . . . . .
H32 H 0.020297 0.376128 0.620600 0.055 Uiso 1 1 calc R . . . .
C33 C 0.1736(3) 0.36270(8) 0.7407(2) 0.0496(7) Uani 1 1 d . . . . .
H33 H 0.152908 0.367663 0.794781 0.059 Uiso 1 1 calc R . . . .
C34 C 0.2813(3) 0.35088(8) 0.7632(2) 0.0472(7) Uani 1 1 d . . . . .
H34 H 0.336167 0.347924 0.833714 0.057 Uiso 1 1 calc R . . . .
C34A C 0.3122(2) 0.34303(7) 0.6837(2) 0.0365(6) Uani 1 1 d . . . . .
S35 S 0.45339(6) 0.33262(2) 0.71692(5) 0.04228(16) Uani 1 1 d . . . . .
O3 O 0.5139(2) 0.36705(7) 0.72324(18) 0.0571(6) Uani 1 1 d . . . . .
O4 O 0.5016(2) 0.30913(8) 0.80799(17) 0.0633(7) Uani 1 1 d . . . . .
C35A C 0.4393(2) 0.30762(7) 0.6081(2) 0.0384(6) Uani 1 1 d . . . . .
C36 C 0.5272(3) 0.28319(9) 0.6188(3) 0.0542(8) Uani 1 1 d . . . . .
H36 H 0.588592 0.278820 0.685726 0.065 Uiso 1 1 calc R . . . .
C37 C 0.5257(3) 0.26551(10) 0.5342(3) 0.0630(9) Uani 1 1 d . . . . .
H37 H 0.585125 0.248639 0.542080 0.076 Uiso 1 1 calc R . . . .
C38 C 0.4354(3) 0.27255(9) 0.4351(3) 0.0550(8) Uani 1 1 d . . . . .
H38 H 0.434688 0.260796 0.375652 0.066 Uiso 1 1 calc R . . . .
C39 C 0.3483(2) 0.29635(8) 0.4240(2) 0.0415(6) Uani 1 1 d . . . . .
H39 H 0.288181 0.300792 0.356457 0.050 Uiso 1 1 calc R . . . .
C39A C 0.3456(2) 0.31443(7) 0.5102(2) 0.0330(5) Uani 1 1 d . . . . .
N40 N 0.25147(18) 0.33575(6) 0.49498(16) 0.0314(4) Uani 1 1 d . . . . .
C40A C 0.2323(2) 0.34619(6) 0.57781(19) 0.0322(5) Uani 1 1 d . . . . .
S41 S -0.09763(5) 0.38382(2) 0.19482(5) 0.03527(14) Uani 1 1 d . . . . .
C42 C 0.0147(2) 0.35413(7) 0.22739(19) 0.0319(5) Uani 1 1 d . . . . .
N43 N -0.0039(2) 0.33472(6) 0.14150(17) 0.0388(5) Uani 1 1 d . . . . .
C44 C -0.1053(3) 0.34264(8) 0.0507(2) 0.0471(7) Uani 1 1 d . . . . .
C45 C -0.1678(2) 0.36931(7) 0.0665(2) 0.0387(6) Uani 1 1 d . . . . .
C46 C 0.0777(3) 0.30654(7) 0.1447(2) 0.0420(6) Uani 1 1 d . . . . .
C47 C 0.0648(3) 0.27004(8) 0.1738(3) 0.0518(8) Uani 1 1 d . . . . .
C48 C 0.1431(3) 0.24347(8) 0.1735(3) 0.0618(9) Uani 1 1 d . . . . .
H48 H 0.136920 0.218205 0.191103 0.074 Uiso 1 1 calc R . . . .
C49 C 0.2283(4) 0.25319(9) 0.1483(3) 0.0643(10) Uani 1 1 d . . . . .
H49 H 0.280348 0.234613 0.148547 0.077 Uiso 1 1 calc R . . . .
C50 C 0.2397(4) 0.28948(9) 0.1225(3) 0.0588(9) Uani 1 1 d . . . . .
H50 H 0.299960 0.295728 0.106024 0.071 Uiso 1 1 calc R . . . .
C51 C 0.1640(3) 0.31728(8) 0.1203(2) 0.0468(7) Uani 1 1 d . . . . .
C52 C -0.0253(3) 0.25959(10) 0.2083(4) 0.0754(12) Uani 1 1 d . . . . .
H52 H -0.069578 0.281917 0.204495 0.091 Uiso 1 1 d R . . A .
C53 C 0.0384(7) 0.2507(2) 0.3363(7) 0.0683(18) Uiso 0.55 1 d . . P A 1
H53A H 0.091700 0.270993 0.372989 0.103 Uiso 0.55 1 calc R . P A 1
H53B H -0.019513 0.248875 0.361387 0.103 Uiso 0.55 1 calc R . P A 1
H53C H 0.080284 0.226956 0.349406 0.103 Uiso 0.55 1 calc R . P A 1
C54 C -0.1018(8) 0.2287(3) 0.1600(8) 0.084(2) Uiso 0.55 1 d . . P A 1
H54A H -0.153820 0.225912 0.191425 0.126 Uiso 0.55 1 calc R . P A 1
H54B H -0.146051 0.233600 0.085422 0.126 Uiso 0.55 1 calc R . P A 1
H54C H -0.057535 0.205620 0.170297 0.126 Uiso 0.55 1 calc R . P A 1
C53' C 0.0158(10) 0.2394(3) 0.2931(10) 0.079(3) Uiso 0.45 1 d . . P A 2
H53D H -0.045532 0.233458 0.311849 0.119 Uiso 0.45 1 calc R . P A 2
H53E H 0.047674 0.216080 0.281289 0.119 Uiso 0.45 1 calc R . P A 2
H53F H 0.075857 0.253466 0.349757 0.119 Uiso 0.45 1 calc R . P A 2
C54' C -0.1118(10) 0.2333(4) 0.1053(10) 0.086(3) Uiso 0.45 1 d . . P A 2
H54D H -0.141989 0.248686 0.042296 0.129 Uiso 0.45 1 calc R . P A 2
H54E H -0.068352 0.212252 0.097261 0.129 Uiso 0.45 1 calc R . P A 2
H54F H -0.175156 0.223603 0.116674 0.129 Uiso 0.45 1 calc R . P A 2
C55 C 0.1819(4) 0.35757(8) 0.0970(3) 0.0543(8) Uani 1 1 d . . . . .
H55 H 0.112449 0.371953 0.087568 0.065 Uiso 1 1 calc R . . . .
C56 C 0.2826(4) 0.37483(10) 0.1884(3) 0.0631(9) Uani 1 1 d . . . . .
H56A H 0.272096 0.372147 0.251253 0.095 Uiso 1 1 calc R . . . .
H56B H 0.352878 0.362034 0.198465 0.095 Uiso 1 1 calc R . . . .
H56C H 0.287929 0.401474 0.174751 0.095 Uiso 1 1 calc R . . . .
C57 C 0.1906(6) 0.36039(12) -0.0039(4) 0.104(2) Uani 1 1 d . . . . .
H57A H 0.123272 0.348796 -0.059982 0.155 Uiso 1 1 calc R . . . .
H57B H 0.194584 0.386828 -0.020471 0.155 Uiso 1 1 calc R . . . .
H57C H 0.259533 0.347388 0.003242 0.155 Uiso 1 1 calc R . . . .
C58 C -0.1304(4) 0.32278(12) -0.0493(3) 0.0866(16) Uani 1 1 d . . . . .
H58A H -0.067986 0.327192 -0.067570 0.130 Uiso 1 1 calc GR . . . .
H58B H -0.201916 0.332382 -0.104796 0.130 Uiso 1 1 calc GR . . . .
H58C H -0.137796 0.295825 -0.040752 0.130 Uiso 1 1 calc GR . . . .
C59 C -0.2808(3) 0.38541(9) -0.0085(2) 0.0503(7) Uani 1 1 d . . . . .
H59A H -0.340493 0.376426 0.009120 0.075 Uiso 1 1 calc GR . . . .
H59B H -0.298560 0.377472 -0.079288 0.075 Uiso 1 1 calc GR . . . .
H59C H -0.277223 0.412825 -0.004444 0.075 Uiso 1 1 calc GR . . . .
C1S C -0.2062(14) 0.3247(5) 0.3714(12) 0.127(5) Uiso 0.5 1 d . . P . .
H1SA H -0.247898 0.347531 0.352446 0.153 Uiso 0.5 1 calc R . P . .
H1SB H -0.126944 0.324973 0.417988 0.153 Uiso 0.5 1 calc R . P . .
C2S C -0.2623(18) 0.2902(7) 0.3300(18) 0.179(8) Uiso 0.5 1 d . . P . .
H2S H -0.242942 0.264326 0.335047 0.215 Uiso 0.5 1 calc R . P . .
C3S C -0.3827(12) 0.3176(4) 0.2659(12) 0.121(4) Uiso 0.5 1 d . . P . .
H3SA H -0.453769 0.302980 0.245588 0.145 Uiso 0.5 1 calc R . P . .
H3SB H -0.382816 0.339448 0.308176 0.145 Uiso 0.5 1 calc R . P . .
C4S C -0.3668(11) 0.3289(4) 0.1742(11) 0.111(4) Uiso 0.5 1 d . . P . .
H4SA H -0.336857 0.307424 0.150610 0.134 Uiso 0.5 1 calc R . P . .
H4SB H -0.309795 0.349401 0.194370 0.134 Uiso 0.5 1 calc R . P . .
C5S C -0.4798(15) 0.3423(5) 0.0842(15) 0.150(6) Uiso 0.5 1 d . . P . .
H5SA H -0.466468 0.349619 0.024995 0.226 Uiso 0.5 1 calc R . P . .
H5SB H -0.535898 0.321983 0.063285 0.226 Uiso 0.5 1 calc R . P . .
H5SC H -0.508857 0.363925 0.107010 0.226 Uiso 0.5 1 calc R . P . .

loop_
_atom_site_aniso_label
_atom_site_aniso_U_11
_atom_site_aniso_U_22
_atom_site_aniso_U_33
_atom_site_aniso_U_23
_atom_site_aniso_U_13
_atom_site_aniso_U_12
Cu1 0.01422(15) 0.03842(19) 0.01438(15) -0.00278(12) 0.00302(11) 0.00061(12)
C1 0.0204(10) 0.0307(11) 0.0189(10) -0.0045(8) 0.0054(8) -0.0027(8)
C2 0.0231(10) 0.0320(11) 0.0275(11) -0.0029(9) 0.0130(9) -0.0009(8)
C3 0.0173(10) 0.0374(12) 0.0310(12) 0.0017(9) 0.0093(9) 0.0026(8)
C4 0.0176(10) 0.0350(12) 0.0240(11) 0.0015(8) 0.0024(8) -0.0003(8)
C4A 0.0173(9) 0.0259(10) 0.0188(9) -0.0008(7) 0.0046(7) -0.0005(7)
S5 0.0189(2) 0.0317(3) 0.0149(2) -0.00310(18) 0.00323(17) -0.00340(18)
O1 0.0231(8) 0.0566(11) 0.0165(7) 0.0014(7) 0.0004(6) -0.0021(7)
O2 0.0323(8) 0.0317(8) 0.0308(8) -0.0096(7) 0.0141(7) -0.0081(7)
C5A 0.0205(10) 0.0254(10) 0.0188(10) -0.0007(7) 0.0056(8) 0.0000(7)
C6 0.0276(11) 0.0327(11) 0.0171(10) 0.0012(8) 0.0069(8) -0.0004(9)
C7 0.0320(12) 0.0364(12) 0.0246(11) 0.0026(9) 0.0158(9) -0.0004(9)
C8 0.0215(10) 0.0395(12) 0.0280(11) 0.0013(9) 0.0106(9) -0.0013(9)
C9 0.0180(10) 0.0381(12) 0.0201(10) -0.0010(8) 0.0047(8) -0.0002(8)
C9A 0.0188(9) 0.0255(10) 0.0171(9) -0.0002(7) 0.0054(7) 0.0009(7)
N10 0.0153(8) 0.0334(9) 0.0165(8) -0.0035(7) 0.0046(6) 0.0000(7)
C10A 0.0165(9) 0.0231(9) 0.0198(10) -0.0003(7) 0.0047(7) -0.0001(7)
S11 0.0213(2) 0.0443(3) 0.0180(2) -0.0013(2) 0.00966(19) 0.0041(2)
C12 0.0169(9) 0.0316(11) 0.0194(10) -0.0010(8) 0.0077(7) 0.0022(8)
N13 0.0151(8) 0.0258(8) 0.0150(8) -0.0014(6) 0.0043(6) 0.0010(6)
C14 0.0209(10) 0.0246(10) 0.0168(9) -0.0002(7) 0.0038(8) 0.0019(7)
C15 0.0239(10) 0.0280(10) 0.0165(10) -0.0006(8) 0.0054(8) 0.0041(8)
C16 0.0127(8) 0.0283(10) 0.0164(9) -0.0012(7) 0.0050(7) 0.0006(7)
C17 0.0139(8) 0.0277(10) 0.0177(9) -0.0015(7) 0.0046(7) 0.0000(7)
C18 0.0169(9) 0.0307(10) 0.0188(9) -0.0031(8) 0.0063(7) 0.0009(8)
C19 0.0187(9) 0.0392(12) 0.0191(10) -0.0009(8) 0.0090(8) -0.0009(8)
C20 0.0210(10) 0.0334(11) 0.0259(10) 0.0029(9) 0.0112(8) -0.0027(8)
C21 0.0176(9) 0.0273(10) 0.0231(10) -0.0009(8) 0.0075(8) -0.0005(8)
C22 0.0289(11) 0.0254(10) 0.0251(10) -0.0036(8) 0.0149(9) -0.0026(8)
C23 0.0268(12) 0.0316(12) 0.0443(14) -0.0047(10) 0.0165(10) -0.0076(9)
C24 0.0358(13) 0.0314(12) 0.0351(13) 0.0048(10) 0.0115(10) 0.0030(10)
C25 0.0390(13) 0.0262(11) 0.0401(13) -0.0024(9) 0.0233(11) -0.0014(9)
C26 0.064(2) 0.0338(14) 0.066(2) 0.0062(13) 0.0250(17) 0.0154(14)
C27 0.0522(17) 0.0365(14) 0.0553(17) -0.0157(12) 0.0259(14) -0.0127(12)
C28 0.0169(10) 0.0530(15) 0.0242(11) -0.0003(10) 0.0010(8) 0.0039(9)
C29 0.0388(13) 0.0416(13) 0.0160(10) -0.0005(9) 0.0060(9) 0.0094(10)
Cu2 0.0343(2) 0.03289(19) 0.02337(18) 0.00098(13) 0.01047(14) 0.00236(14)
C31 0.0492(15) 0.0334(12) 0.0357(13) 0.0009(10) 0.0212(11) 0.0008(11)
C32 0.0627(18) 0.0351(13) 0.0509(17) -0.0025(12) 0.0361(15) -0.0011(12)
C33 0.081(2) 0.0370(14) 0.0449(16) -0.0035(12) 0.0412(16) -0.0073(14)
C34 0.076(2) 0.0366(14) 0.0283(13) -0.0029(10) 0.0228(13) -0.0202(14)
C34A 0.0510(15) 0.0274(11) 0.0277(12) 0.0003(9) 0.0148(11) -0.0147(10)
S35 0.0413(3) 0.0465(4) 0.0286(3) 0.0042(3) 0.0065(2) -0.0160(3)
O3 0.0619(14) 0.0608(14) 0.0489(12) -0.0148(10) 0.0253(11) -0.0371(11)
O4 0.0537(13) 0.0808(17) 0.0373(11) 0.0218(11) 0.0046(10) -0.0058(12)
C35A 0.0353(13) 0.0328(12) 0.0382(13) 0.0065(10) 0.0087(11) -0.0046(10)
C36 0.0387(15) 0.0472(17) 0.061(2) 0.0085(14) 0.0086(13) 0.0053(13)
C37 0.0447(17) 0.0491(18) 0.086(3) 0.0022(17) 0.0218(17) 0.0131(14)
C38 0.0522(18) 0.0487(17) 0.066(2) -0.0094(15) 0.0281(16) 0.0034(14)
C39 0.0369(14) 0.0418(14) 0.0421(14) -0.0032(11) 0.0147(11) 0.0014(11)
C39A 0.0337(12) 0.0286(11) 0.0336(12) 0.0027(9) 0.0124(10) -0.0033(9)
N40 0.0355(10) 0.0313(10) 0.0257(10) 0.0010(8) 0.0124(8) -0.0012(8)
C40A 0.0440(14) 0.0240(11) 0.0290(12) 0.0013(9) 0.0167(10) -0.0068(9)
S41 0.0331(3) 0.0380(3) 0.0301(3) -0.0031(2) 0.0102(2) 0.0037(2)
C42 0.0379(13) 0.0276(11) 0.0281(11) 0.0005(9) 0.0131(10) 0.0013(9)
N43 0.0500(13) 0.0253(10) 0.0281(10) -0.0023(8) 0.0060(9) 0.0093(9)
C44 0.0593(18) 0.0307(13) 0.0300(13) -0.0046(10) 0.0013(12) 0.0063(12)
C45 0.0417(14) 0.0278(12) 0.0319(12) 0.0002(9) 0.0035(10) 0.0003(10)
C46 0.0599(17) 0.0252(12) 0.0295(12) -0.0029(9) 0.0101(11) 0.0122(11)
C47 0.0581(18) 0.0256(13) 0.0573(18) -0.0033(12) 0.0134(14) 0.0051(12)
C48 0.079(2) 0.0213(13) 0.075(2) 0.0003(13) 0.0262(19) 0.0120(14)
C49 0.088(3) 0.0339(15) 0.075(2) -0.0013(15) 0.040(2) 0.0230(16)
C50 0.089(3) 0.0399(16) 0.063(2) 0.0031(14) 0.049(2) 0.0202(16)
C51 0.079(2) 0.0296(13) 0.0350(14) 0.0027(10) 0.0286(14) 0.0171(13)
C52 0.060(2) 0.0327(16) 0.125(4) 0.0091(19) 0.035(2) -0.0022(15)
C55 0.095(3) 0.0339(14) 0.0492(17) 0.0105(12) 0.0454(18) 0.0185(15)
C56 0.084(3) 0.0420(17) 0.077(2) 0.0114(16) 0.049(2) 0.0060(16)
C57 0.222(7) 0.053(2) 0.085(3) 0.018(2) 0.112(4) 0.027(3)
C58 0.100(3) 0.069(2) 0.0416(18) -0.0250(17) -0.0113(19) 0.035(2)
C59 0.0458(16) 0.0436(16) 0.0410(15) 0.0018(12) 0.0016(12) 0.0042(12)

_geom_special_details            
;
 All esds (except the esd in the dihedral angle between two l.s. planes)
 are estimated using the full covariance matrix.  The cell esds are taken
 into account individually in the estimation of esds in distances, angles
 and torsion angles; correlations between esds in cell parameters are only
 used when they are defined by crystal symmetry.  An approximate (isotropic)
 treatment of cell esds is used for estimating esds involving l.s. planes.
;
loop_
_geom_bond_atom_site_label_1
_geom_bond_atom_site_label_2
_geom_bond_distance
_geom_bond_site_symmetry_2
_geom_bond_publ_flag
Cu1 N10 1.8807(17) . ?
Cu1 C12 1.865(2) . ?
C1 C2 1.374(3) . ?
C1 C10A 1.414(3) . ?
C2 C3 1.401(3) . ?
C3 C4 1.373(3) . ?
C4 C4A 1.402(3) . ?
C4A S5 1.733(2) . ?
C4A C10A 1.413(3) . ?
S5 O1 1.4454(16) . ?
S5 O2 1.4495(18) . ?
S5 C5A 1.729(2) . ?
C5A C6 1.404(3) . ?
C5A C9A 1.409(3) . ?
C6 C7 1.375(3) . ?
C7 C8 1.401(3) . ?
C8 C9 1.375(3) . ?
C9 C9A 1.415(3) . ?
C9A N10 1.382(3) . ?
N10 C10A 1.380(3) . ?
S11 C12 1.705(2) . ?
S11 C15 1.734(2) . ?
C12 N13 1.347(3) . ?
N13 C14 1.395(3) . ?
N13 C16 1.452(3) . ?
C14 C15 1.350(3) . ?
C14 C28 1.484(3) . ?
C15 C29 1.495(3) . ?
C16 C17 1.400(3) . ?
C16 C21 1.397(3) . ?
C17 C18 1.400(3) . ?
C17 C22 1.517(3) . ?
C18 C19 1.388(3) . ?
C19 C20 1.386(3) . ?
C20 C21 1.398(3) . ?
C21 C25 1.521(3) . ?
C22 C23 1.540(3) . ?
C22 C24 1.531(3) . ?
C25 C26 1.521(4) . ?
C25 C27 1.536(4) . ?
Cu2 N40 1.891(2) . ?
Cu2 C42 1.874(2) . ?
C31 C32 1.372(4) . ?
C31 C40A 1.413(4) . ?
C32 C33 1.390(5) . ?
C33 C34 1.367(5) . ?
C34 C34A 1.405(4) . ?
C34A S35 1.732(3) . ?
C34A C40A 1.414(4) . ?
S35 O3 1.443(2) . ?
S35 O4 1.441(2) . ?
S35 C35A 1.741(3) . ?
C35A C36 1.397(4) . ?
C35A C39A 1.413(3) . ?
C36 C37 1.366(6) . ?
C37 C38 1.407(5) . ?
C38 C39 1.374(4) . ?
C39 C39A 1.415(4) . ?
C39A N40 1.382(3) . ?
N40 C40A 1.378(3) . ?
S41 C42 1.701(3) . ?
S41 C45 1.732(3) . ?
C42 N43 1.341(3) . ?
N43 C44 1.411(3) . ?
N43 C46 1.455(3) . ?
C44 C45 1.342(4) . ?
C44 C58 1.503(4) . ?
C45 C59 1.501(4) . ?
C46 C47 1.402(4) . ?
C46 C51 1.382(5) . ?
C47 C48 1.400(5) . ?
C47 C52 1.522(6) . ?
C48 C49 1.368(6) . ?
C49 C50 1.373(5) . ?
C50 C51 1.394(4) . ?
C51 C55 1.518(4) . ?
C52 C53 1.677(10) . ?
C52 C54 1.441(10) . ?
C52 C53' 1.307(12) . ?
C52 C54' 1.690(13) . ?
C55 C56 1.514(6) . ?
C55 C57 1.514(5) . ?
C1S C2S 1.42(3) . ?
C2S C3S 1.73(3) . ?
C3S C4S 1.49(2) . ?
C4S C5S 1.54(2) . ?

loop_
_geom_angle_atom_site_label_1
_geom_angle_atom_site_label_2
_geom_angle_atom_site_label_3
_geom_angle
_geom_angle_site_symmetry_1
_geom_angle_site_symmetry_3
_geom_angle_publ_flag
C12 Cu1 N10 177.50(8) . . ?
C2 C1 C10A 121.8(2) . . ?
C1 C2 C3 121.0(2) . . ?
C4 C3 C2 118.9(2) . . ?
C3 C4 C4A 120.4(2) . . ?
C4 C4A S5 119.01(16) . . ?
C4 C4A C10A 121.7(2) . . ?
C10A C4A S5 118.76(15) . . ?
O1 S5 C4A 111.01(11) . . ?
O1 S5 O2 115.53(11) . . ?
O1 S5 C5A 110.59(10) . . ?
O2 S5 C4A 108.70(10) . . ?
O2 S5 C5A 108.80(10) . . ?
C5A S5 C4A 101.23(10) . . ?
C6 C5A S5 118.39(16) . . ?
C6 C5A C9A 122.4(2) . . ?
C9A C5A S5 118.89(16) . . ?
C7 C6 C5A 120.3(2) . . ?
C6 C7 C8 118.5(2) . . ?
C9 C8 C7 121.3(2) . . ?
C8 C9 C9A 121.9(2) . . ?
C5A C9A C9 115.52(19) . . ?
N10 C9A C5A 125.06(19) . . ?
N10 C9A C9 119.38(18) . . ?
C9A N10 Cu1 119.56(14) . . ?
C10A N10 Cu1 119.64(14) . . ?
C10A N10 C9A 120.41(17) . . ?
C4A C10A C1 116.05(18) . . ?
N10 C10A C1 119.35(18) . . ?
N10 C10A C4A 124.55(19) . . ?
C12 S11 C15 94.32(10) . . ?
S11 C12 Cu1 127.24(12) . . ?
N13 C12 Cu1 125.59(15) . . ?
N13 C12 S11 107.16(15) . . ?
C12 N13 C14 117.35(17) . . ?
C12 N13 C16 120.32(16) . . ?
C14 N13 C16 122.32(16) . . ?
N13 C14 C28 120.27(19) . . ?
C15 C14 N13 112.10(18) . . ?
C15 C14 C28 127.6(2) . . ?
C14 C15 S11 109.08(15) . . ?
C14 C15 C29 127.7(2) . . ?
C29 C15 S11 123.20(18) . . ?
C17 C16 N13 118.45(18) . . ?
C21 C16 N13 118.26(18) . . ?
C21 C16 C17 123.29(19) . . ?
C16 C17 C18 116.89(19) . . ?
C16 C17 C22 123.04(18) . . ?
C18 C17 C22 120.06(19) . . ?
C19 C18 C17 121.3(2) . . ?
C20 C19 C18 120.2(2) . . ?
C19 C20 C21 120.9(2) . . ?
C16 C21 C20 117.5(2) . . ?
C16 C21 C25 122.76(19) . . ?
C20 C21 C25 119.8(2) . . ?
C17 C22 C23 110.24(19) . . ?
C17 C22 C24 111.68(18) . . ?
C24 C22 C23 109.94(19) . . ?
C21 C25 C26 110.6(2) . . ?
C21 C25 C27 111.1(2) . . ?
C26 C25 C27 110.3(2) . . ?
C42 Cu2 N40 175.89(10) . . ?
C32 C31 C40A 122.3(3) . . ?
C31 C32 C33 121.1(3) . . ?
C34 C33 C32 118.7(3) . . ?
C33 C34 C34A 121.1(3) . . ?
C34 C34A S35 118.9(2) . . ?
C34 C34A C40A 121.2(3) . . ?
C40A C34A S35 119.7(2) . . ?
C34A S35 C35A 101.28(13) . . ?
O3 S35 C34A 108.91(14) . . ?
O3 S35 C35A 108.97(13) . . ?
O4 S35 C34A 110.57(14) . . ?
O4 S35 O3 115.78(15) . . ?
O4 S35 C35A 110.34(16) . . ?
C36 C35A S35 118.2(2) . . ?
C36 C35A C39A 121.4(3) . . ?
C39A C35A S35 120.2(2) . . ?
C37 C36 C35A 120.7(3) . . ?
C36 C37 C38 119.3(3) . . ?
C39 C38 C37 120.3(3) . . ?
C38 C39 C39A 121.9(3) . . ?
C35A C39A C39 116.3(2) . . ?
N40 C39A C35A 124.5(2) . . ?
N40 C39A C39 119.1(2) . . ?
C39A N40 Cu2 120.80(17) . . ?
C40A N40 Cu2 118.02(17) . . ?
C40A N40 C39A 120.7(2) . . ?
C31 C40A C34A 115.6(2) . . ?
N40 C40A C31 119.0(2) . . ?
N40 C40A C34A 125.3(2) . . ?
C42 S41 C45 94.92(13) . . ?
S41 C42 Cu2 127.70(14) . . ?
N43 C42 Cu2 125.08(19) . . ?
N43 C42 S41 107.01(18) . . ?
C42 N43 C44 117.1(2) . . ?
C42 N43 C46 120.2(2) . . ?
C44 N43 C46 122.7(2) . . ?
N43 C44 C58 120.2(3) . . ?
C45 C44 N43 112.2(2) . . ?
C45 C44 C58 127.7(3) . . ?
C44 C45 S41 108.81(19) . . ?
C44 C45 C59 129.1(3) . . ?
C59 C45 S41 122.1(2) . . ?
C47 C46 N43 117.7(3) . . ?
C51 C46 N43 118.4(2) . . ?
C51 C46 C47 123.8(3) . . ?
C46 C47 C52 122.8(3) . . ?
C48 C47 C46 116.1(3) . . ?
C48 C47 C52 121.0(3) . . ?
C49 C48 C47 121.2(3) . . ?
C48 C49 C50 120.8(3) . . ?
C49 C50 C51 121.0(4) . . ?
C46 C51 C50 117.0(3) . . ?
C46 C51 C55 123.0(3) . . ?
C50 C51 C55 120.0(3) . . ?
C47 C52 C53 109.3(4) . . ?
C47 C52 C54' 99.3(6) . . ?
C54 C52 C47 120.3(6) . . ?
C54 C52 C53 106.3(6) . . ?
C53' C52 C47 112.8(6) . . ?
C53' C52 C54' 110.2(8) . . ?
C56 C55 C51 110.7(3) . . ?
C56 C55 C57 113.3(4) . . ?
C57 C55 C51 111.2(3) . . ?
C1S C2S C3S 84.8(16) . . ?
C4S C3S C2S 99.7(12) . . ?
C3S C4S C5S 111.4(13) . . ?

_shelx_res_file                  
;
TITL pk14try2_a.res in P2(1)/c
    pk14try2.res
    created by SHELXL-2018/3 at 20:48:49 on 01-Mar-2022
REM SHELXT solution in P2(1)/c
REM R1 0.135, Rweak 0.007, Alpha 0.038, Orientation as input
REM Formula found by SHELXT: C57 C4 O5 S35 Cu2
CELL 1.54184 13.1244 35.681 14.415 90 116.81 90
ZERR 2 0.0003 0.0005 0.0003 0 0.002 0
LATT 1
SYMM -X,0.5+Y,0.5-Z
SFAC C H Cu N O S
UNIT 242 268 8 16 16 16

L.S. 3
PLAN  7
SIZE 0.18 0.04 0.03
TEMP -123
fmap 2
acta
OMIT 0 0 2
OMIT -2 3 3
OMIT 0 2 1
OMIT 1 1 2
OMIT -2 1 2
OMIT 0 5 1
OMIT -2 1 1
OMIT -2 1 3
OMIT -1 5 1
REM <olex2.extras>
REM <HklSrc "%.\\PK14try2.hkl">
REM </olex2.extras>

WGHT    0.072800    5.502000
FVAR       1.02108
CU1   3    0.005804    0.542606    0.348006    11.00000    0.01422    0.03842 =
         0.01438   -0.00278    0.00302    0.00061
C1    1   -0.250786    0.549665    0.266621    11.00000    0.02035    0.03066 =
         0.01888   -0.00450    0.00542   -0.00266
AFIX  43
H1    2   -0.192407    0.551318    0.336158    11.00000   -1.20000
AFIX   0
C2    1   -0.362434    0.554733    0.247073    11.00000    0.02309    0.03202 =
         0.02754   -0.00292    0.01298   -0.00094
AFIX  43
H2    2   -0.379705    0.559893    0.303093    11.00000   -1.20000
AFIX   0
C3    1   -0.451245    0.552405    0.145713    11.00000    0.01734    0.03743 =
         0.03101    0.00167    0.00929    0.00256
AFIX  43
H3    2   -0.528022    0.556784    0.132445    11.00000   -1.20000
AFIX   0
C4    1   -0.425505    0.543694    0.065886    11.00000    0.01757    0.03498 =
         0.02402    0.00154    0.00242   -0.00030
AFIX  43
H4    2   -0.485039    0.541534   -0.002995    11.00000   -1.20000
AFIX   0
C4A   1   -0.311863    0.537968    0.085431    11.00000    0.01726    0.02593 =
         0.01878   -0.00084    0.00459   -0.00046
S5    6   -0.284255    0.519635   -0.012260    11.00000    0.01886    0.03165 =
         0.01490   -0.00310    0.00323   -0.00340
O1    5   -0.363201    0.534315   -0.112640    11.00000    0.02307    0.05663 =
         0.01652    0.00143    0.00038   -0.00208
O2    5   -0.279799    0.479134   -0.003509    11.00000    0.03234    0.03168 =
         0.03085   -0.00960    0.01414   -0.00807
C5A   1   -0.147933    0.536356    0.023539    11.00000    0.02045    0.02542 =
         0.01876   -0.00073    0.00555   -0.00005
C6    1   -0.111493    0.540395   -0.053726    11.00000    0.02764    0.03268 =
         0.01710    0.00115    0.00687   -0.00035
AFIX  43
H6    2   -0.164173    0.536865   -0.124699    11.00000   -1.20000
AFIX   0
C7    1    0.000126    0.549441   -0.027110    11.00000    0.03199    0.03636 =
         0.02465    0.00257    0.01584   -0.00041
AFIX  43
H7    2    0.025134    0.552566   -0.079054    11.00000   -1.20000
AFIX   0
C8    1    0.076179    0.553946    0.078312    11.00000    0.02147    0.03950 =
         0.02801    0.00132    0.01061   -0.00131
AFIX  43
H8    2    0.153845    0.559748    0.097797    11.00000   -1.20000
AFIX   0
C9    1    0.040605    0.550135    0.154141    11.00000    0.01797    0.03809 =
         0.02008   -0.00103    0.00467   -0.00023
AFIX  43
H9    2    0.094611    0.553232    0.224884    11.00000   -1.20000
AFIX   0
C9A   1   -0.074048    0.541737    0.129897    11.00000    0.01879    0.02555 =
         0.01713   -0.00016    0.00539    0.00090
N10   4   -0.106424    0.540532    0.208760    11.00000    0.01533    0.03338 =
         0.01651   -0.00349    0.00461   -0.00001
C10A  1   -0.220379    0.542055    0.186085    11.00000    0.01655    0.02308 =
         0.01976   -0.00025    0.00474   -0.00005
S11   6    0.107124    0.549186    0.595115    11.00000    0.02133    0.04432 =
         0.01796   -0.00132    0.00966    0.00414
C12   1    0.121967    0.544394    0.484115    11.00000    0.01692    0.03161 =
         0.01935   -0.00100    0.00770    0.00216
N13   4    0.234504    0.541386    0.512650    11.00000    0.01514    0.02577 =
         0.01499   -0.00143    0.00434    0.00102
C14   1    0.308700    0.542666    0.618730    11.00000    0.02094    0.02465 =
         0.01677   -0.00022    0.00377    0.00192
C15   1    0.252529    0.547068    0.676674    11.00000    0.02388    0.02802 =
         0.01648   -0.00062    0.00545    0.00414
C16   1    0.274994    0.537767    0.434497    11.00000    0.01266    0.02827 =
         0.01635   -0.00120    0.00502    0.00063
C17   1    0.281393    0.501898    0.398162    11.00000    0.01386    0.02767 =
         0.01774   -0.00151    0.00459    0.00004
C18   1    0.318714    0.499533    0.321374    11.00000    0.01688    0.03072 =
         0.01882   -0.00313    0.00627    0.00086
AFIX  43
H18   2    0.322992    0.475705    0.293936    11.00000   -1.20000
AFIX   0
C19   1    0.349563    0.531326    0.284600    11.00000    0.01868    0.03921 =
         0.01913   -0.00088    0.00902   -0.00087
AFIX  43
H19   2    0.374629    0.529102    0.232459    11.00000   -1.20000
AFIX   0
C20   1    0.343893    0.566317    0.323757    11.00000    0.02101    0.03339 =
         0.02588    0.00289    0.01122   -0.00266
AFIX  43
H20   2    0.366124    0.587887    0.298736    11.00000   -1.20000
AFIX   0
C21   1    0.305921    0.570307    0.399547    11.00000    0.01756    0.02733 =
         0.02309   -0.00090    0.00753   -0.00054
C22   1    0.248502    0.466626    0.437010    11.00000    0.02885    0.02542 =
         0.02506   -0.00356    0.01486   -0.00258
AFIX  13
H22   2    0.232070    0.473621    0.496099    11.00000   -1.20000
AFIX   0
C23   1    0.139670    0.449382    0.350275    11.00000    0.02684    0.03163 =
         0.04426   -0.00473    0.01653   -0.00759
AFIX 137
H23A  2    0.155414    0.441023    0.293257    11.00000   -1.50000
H23B  2    0.078811    0.468225    0.324384    11.00000   -1.50000
H23C  2    0.115520    0.427924    0.377983    11.00000   -1.50000
AFIX   0
C24   1    0.345096    0.437709    0.476284    11.00000    0.03577    0.03143 =
         0.03510    0.00483    0.01148    0.00304
AFIX 137
H24A  2    0.414978    0.449226    0.529160    11.00000   -1.50000
H24B  2    0.358315    0.429022    0.418119    11.00000   -1.50000
H24C  2    0.323815    0.416373    0.506708    11.00000   -1.50000
AFIX   0
C25   1    0.297489    0.609154    0.438935    11.00000    0.03898    0.02623 =
         0.04013   -0.00243    0.02328   -0.00138
AFIX  13
H25   2    0.265124    0.606533    0.489509    11.00000   -1.20000
AFIX   0
C26   1    0.217667    0.633896    0.349744    11.00000    0.06384    0.03377 =
         0.06573    0.00616    0.02503    0.01544
AFIX 137
H26A  2    0.142804    0.621799    0.314041    11.00000   -1.50000
H26B  2    0.249515    0.637603    0.300629    11.00000   -1.50000
H26C  2    0.209268    0.658222    0.377112    11.00000   -1.50000
AFIX   0
C27   1    0.415687    0.627490    0.495379    11.00000    0.05223    0.03647 =
         0.05528   -0.01567    0.02588   -0.01273
AFIX 137
H27A  2    0.452169    0.627937    0.449190    11.00000   -1.50000
H27B  2    0.463026    0.613050    0.558001    11.00000   -1.50000
H27C  2    0.407300    0.653183    0.514970    11.00000   -1.50000
AFIX   0
C28   1    0.433331    0.537847    0.656033    11.00000    0.01688    0.05296 =
         0.02417   -0.00031    0.00096    0.00385
AFIX 137
H28A  2    0.463949    0.559673    0.635680    11.00000   -1.50000
H28B  2    0.447356    0.515180    0.625133    11.00000   -1.50000
H28C  2    0.471018    0.535505    0.731929    11.00000   -1.50000
AFIX   0
C29   1    0.302301    0.549435    0.792447    11.00000    0.03883    0.04164 =
         0.01602   -0.00051    0.00601    0.00939
AFIX 137
H29A  2    0.243185    0.543638    0.814088    11.00000   -1.50000
H29B  2    0.331351    0.574821    0.815157    11.00000   -1.50000
H29C  2    0.364990    0.531397    0.823978    11.00000   -1.50000
AFIX   0

CU2   3    0.136173    0.345984    0.359398    11.00000    0.03432    0.03289 =
         0.02337    0.00098    0.01047    0.00236
C31   1    0.123055    0.359371    0.558539    11.00000    0.04920    0.03341 =
         0.03567    0.00093    0.02118    0.00080
AFIX  43
H31   2    0.067129    0.362856    0.488630    11.00000   -1.20000
AFIX   0
C32   1    0.094858    0.367321    0.637184    11.00000    0.06265    0.03505 =
         0.05092   -0.00245    0.03606   -0.00113
AFIX  43
H32   2    0.020297    0.376128    0.620600    11.00000   -1.20000
AFIX   0
C33   1    0.173553    0.362704    0.740720    11.00000    0.08116    0.03698 =
         0.04494   -0.00352    0.04117   -0.00726
AFIX  43
H33   2    0.152908    0.367663    0.794781    11.00000   -1.20000
AFIX   0
C34   1    0.281294    0.350879    0.763206    11.00000    0.07591    0.03657 =
         0.02826   -0.00293    0.02276   -0.02017
AFIX  43
H34   2    0.336167    0.347924    0.833714    11.00000   -1.20000
AFIX   0
C34A  1    0.312197    0.343026    0.683730    11.00000    0.05104    0.02739 =
         0.02771    0.00033    0.01483   -0.01473
S35   6    0.453393    0.332617    0.716923    11.00000    0.04126    0.04654 =
         0.02859    0.00422    0.00652   -0.01601
O3    5    0.513854    0.367053    0.723243    11.00000    0.06190    0.06082 =
         0.04889   -0.01484    0.02528   -0.03711
O4    5    0.501560    0.309126    0.807991    11.00000    0.05373    0.08075 =
         0.03726    0.02177    0.00455   -0.00578
C35A  1    0.439323    0.307617    0.608083    11.00000    0.03526    0.03283 =
         0.03820    0.00651    0.00875   -0.00462
C36   1    0.527193    0.283187    0.618834    11.00000    0.03868    0.04722 =
         0.06092    0.00855    0.00858    0.00525
AFIX  43
H36   2    0.588592    0.278820    0.685726    11.00000   -1.20000
AFIX   0
C37   1    0.525746    0.265511    0.534153    11.00000    0.04471    0.04915 =
         0.08645    0.00223    0.02183    0.01308
AFIX  43
H37   2    0.585125    0.248639    0.542080    11.00000   -1.20000
AFIX   0
C38   1    0.435441    0.272547    0.435096    11.00000    0.05223    0.04866 =
         0.06574   -0.00936    0.02810    0.00340
AFIX  43
H38   2    0.434688    0.260796    0.375652    11.00000   -1.20000
AFIX   0
C39   1    0.348322    0.296349    0.423979    11.00000    0.03686    0.04182 =
         0.04212   -0.00319    0.01466    0.00142
AFIX  43
H39   2    0.288181    0.300792    0.356457    11.00000   -1.20000
AFIX   0
C39A  1    0.345638    0.314428    0.510230    11.00000    0.03366    0.02860 =
         0.03358    0.00274    0.01242   -0.00333
N40   4    0.251465    0.335749    0.494982    11.00000    0.03553    0.03135 =
         0.02569    0.00104    0.01239   -0.00117
C40A  1    0.232313    0.346186    0.577812    11.00000    0.04403    0.02399 =
         0.02897    0.00132    0.01674   -0.00682
S41   6   -0.097630    0.383822    0.194822    11.00000    0.03310    0.03800 =
         0.03008   -0.00309    0.01015    0.00366
C42   1    0.014721    0.354130    0.227388    11.00000    0.03794    0.02762 =
         0.02811    0.00049    0.01309    0.00128
N43   4   -0.003897    0.334721    0.141503    11.00000    0.04996    0.02530 =
         0.02814   -0.00231    0.00600    0.00931
C44   1   -0.105271    0.342636    0.050699    11.00000    0.05931    0.03067 =
         0.02996   -0.00458    0.00127    0.00629
C45   1   -0.167787    0.369311    0.066541    11.00000    0.04172    0.02781 =
         0.03185    0.00022    0.00354    0.00034
C46   1    0.077738    0.306544    0.144729    11.00000    0.05988    0.02517 =
         0.02945   -0.00293    0.01006    0.01217
C47   1    0.064815    0.270044    0.173775    11.00000    0.05807    0.02556 =
         0.05731   -0.00334    0.01337    0.00509
C48   1    0.143106    0.243470    0.173468    11.00000    0.07911    0.02131 =
         0.07525    0.00027    0.02617    0.01200
AFIX  43
H48   2    0.136920    0.218205    0.191103    11.00000   -1.20000
AFIX   0
C49   1    0.228348    0.253188    0.148258    11.00000    0.08819    0.03387 =
         0.07455   -0.00130    0.04007    0.02298
AFIX  43
H49   2    0.280348    0.234613    0.148547    11.00000   -1.20000
AFIX   0
C50   1    0.239662    0.289479    0.122533    11.00000    0.08918    0.03988 =
         0.06343    0.00311    0.04851    0.02024
AFIX  43
H50   2    0.299960    0.295728    0.106024    11.00000   -1.20000
AFIX   0
C51   1    0.163971    0.317276    0.120291    11.00000    0.07904    0.02956 =
         0.03503    0.00271    0.02857    0.01711
C52   1   -0.025268    0.259587    0.208345    11.00000    0.06046    0.03274 =
         0.12540    0.00910    0.03511   -0.00221
AFIX   3
H52   2   -0.069578    0.281917    0.204495    11.00000   -1.20000
AFIX   0
PART 1
C53   1    0.038418    0.250677    0.336330    10.55000    0.06834
AFIX  33
H53A  2    0.091700    0.270993    0.372989    10.55000   -1.50000
H53B  2   -0.019513    0.248875    0.361387    10.55000   -1.50000
H53C  2    0.080284    0.226956    0.349406    10.55000   -1.50000
AFIX   0
C54   1   -0.101789    0.228710    0.160006    10.55000    0.08391
AFIX  33
H54A  2   -0.153820    0.225912    0.191425    10.55000   -1.50000
H54B  2   -0.146051    0.233600    0.085422    10.55000   -1.50000
H54C  2   -0.057535    0.205620    0.170297    10.55000   -1.50000
AFIX   0
PART 0
PART 2
C53'  1    0.015751    0.239383    0.293118    10.45000    0.07946
AFIX  33
H53D  2   -0.045532    0.233458    0.311849    10.45000   -1.50000
H53E  2    0.047674    0.216080    0.281289    10.45000   -1.50000
H53F  2    0.075857    0.253466    0.349757    10.45000   -1.50000
AFIX   0
C54'  1   -0.111776    0.233268    0.105326    10.45000    0.08614
AFIX  33
H54D  2   -0.141989    0.248686    0.042296    10.45000   -1.50000
H54E  2   -0.068352    0.212252    0.097261    10.45000   -1.50000
H54F  2   -0.175156    0.223603    0.116674    10.45000   -1.50000
AFIX   0
PART 0
C55   1    0.181865    0.357567    0.097028    11.00000    0.09458    0.03389 =
         0.04920    0.01045    0.04541    0.01851
AFIX  13
H55   2    0.112449    0.371953    0.087568    11.00000   -1.20000
AFIX   0
C56   1    0.282568    0.374827    0.188431    11.00000    0.08434    0.04196 =
         0.07685    0.01137    0.04860    0.00604
AFIX  33
H56A  2    0.272096    0.372147    0.251253    11.00000   -1.50000
H56B  2    0.352878    0.362034    0.198465    11.00000   -1.50000
H56C  2    0.287929    0.401474    0.174751    11.00000   -1.50000
AFIX   0
C57   1    0.190582    0.360394   -0.003950    11.00000    0.22173    0.05273 =
         0.08460    0.01807    0.11163    0.02675
AFIX  33
H57A  2    0.123272    0.348796   -0.059982    11.00000   -1.50000
H57B  2    0.194584    0.386828   -0.020471    11.00000   -1.50000
H57C  2    0.259533    0.347388    0.003242    11.00000   -1.50000
AFIX   0
C58   1   -0.130431    0.322781   -0.049307    11.00000    0.09997    0.06938 =
         0.04163   -0.02501   -0.01125    0.03546
AFIX 137
H58A  2   -0.067986    0.327192   -0.067570    11.00000   -1.50000
H58B  2   -0.201916    0.332382   -0.104796    11.00000   -1.50000
H58C  2   -0.137796    0.295825   -0.040752    11.00000   -1.50000
AFIX   0
C59   1   -0.280828    0.385406   -0.008535    11.00000    0.04584    0.04362 =
         0.04103    0.00185    0.00161    0.00420
AFIX 137
H59A  2   -0.340493    0.376426    0.009120    11.00000   -1.50000
H59B  2   -0.298560    0.377472   -0.079288    11.00000   -1.50000
H59C  2   -0.277223    0.412825   -0.004444    11.00000   -1.50000
AFIX   0

C1S   1   -0.206173    0.324711    0.371385    10.50000    0.12720
AFIX  93
H1SA  2   -0.247898    0.347531    0.352446    10.50000   -1.20000
H1SB  2   -0.126944    0.324973    0.417988    10.50000   -1.20000
AFIX   0
C2S   1   -0.262327    0.290153    0.329965    10.50000    0.17884
AFIX  43
H2S   2   -0.242942    0.264326    0.335047    10.50000   -1.20000
AFIX   0
C3S   1   -0.382727    0.317581    0.265938    10.50000    0.12104
AFIX  23
H3SA  2   -0.453769    0.302980    0.245588    10.50000   -1.20000
H3SB  2   -0.382816    0.339448    0.308176    10.50000   -1.20000
AFIX   0
C4S   1   -0.366764    0.328947    0.174217    10.50000    0.11147
AFIX  23
H4SA  2   -0.336857    0.307424    0.150610    10.50000   -1.20000
H4SB  2   -0.309795    0.349401    0.194370    10.50000   -1.20000
AFIX   0
C5S   1   -0.479791    0.342338    0.084176    10.50000    0.15037
AFIX  33
H5SA  2   -0.466468    0.349619    0.024995    10.50000   -1.50000
H5SB  2   -0.535898    0.321983    0.063285    10.50000   -1.50000
H5SC  2   -0.508857    0.363925    0.107010    10.50000   -1.50000
AFIX   0
HKLF 4




REM  pk14try2_a.res in P2(1)/c
REM wR2 = 0.1294, GooF = S = 1.032, Restrained GooF = 1.032 for all data
REM R1 = 0.0450 for 10919 Fo > 4sig(Fo) and 0.0494 for all 12061 data
REM 675 parameters refined using 0 restraints

END

WGHT      0.0728      5.5006

REM Highest difference peak  1.051,  deepest hole -0.652,  1-sigma level  0.077
Q1    1  -0.2937  0.3050  0.3541  11.00000  0.05    1.05
Q2    1  -0.3430  0.2788  0.3621  11.00000  0.05    1.03
Q3    1  -0.3486  0.3425  0.2796  11.00000  0.05    0.97
Q4    1  -0.3919  0.3494  0.2443  11.00000  0.05    0.83
Q5    1  -0.1690  0.3040  0.3607  11.00000  0.05    0.80
Q6    1  -0.2721  0.3020  0.2224  11.00000  0.05    0.76
Q7    1   0.4950  0.3161  0.7080  11.00000  0.05    0.63
;
_shelx_res_checksum              39724
_olex2_submission_special_instructions 'No special instructions were received'
_oxdiff_exptl_absorpt_empirical_details 
;
Empirical correction (ABSPACK) includes:
- Absorption correction using spherical harmonics
- Frame scaling
;
_oxdiff_exptl_absorpt_empirical_full_max 1.238
_oxdiff_exptl_absorpt_empirical_full_min 0.734
